Circuit: * C:\Users\liamb\Desktop\CodingProjects\Monte-Python\PHAReduced.asc

Direct Newton iteration for .op point succeeded.

Date: Mon Jun 12 17:33:58 2023
Total elapsed time: 26.576 seconds.

tnom = 27
temp = 27
method = modified trap
totiter = 209158
traniter = 209130
tranpoints = 96571
accept = 94519
rejected = 2052
matrix size = 36
fillins = 21
solver = Normal
Avg thread counts: 1.0/1.0/1.0/1.0
Matrix Compiler1: 3.20 KB object code size  0.7/0.6/[0.5]
Matrix Compiler2: 4.01 KB object code size  0.3/0.3/[0.2]

