Circuit: * C:\Users\liamb\Desktop\Research\monte-python\Transfer_files\PHAReduced.asc

i1: Removing PWL point (2.9062e-09,0)
i1: Removing PWL point (3.0512e-09,0)
i1: Removing PWL point (1.00371e-06,0)
i1: Removing PWL point (1.00384e-06,0)
i1: Removing PWL point (3.00287e-06,0)
i1: Removing PWL point (3.00297e-06,0)
i1: Removing PWL point (3.003e-06,0)
i1: Removing PWL point (3.00307e-06,0)
i1: Removing PWL point (4.00335e-06,0)
i1: Removing PWL point (4.00337e-06,0)
i1: Removing PWL point (4.00344e-06,0)
i1: Removing PWL point (5.00298e-06,0)
i1: Removing PWL point (5.00299e-06,0)
i1: Removing PWL point (5.00305e-06,0)
i1: Removing PWL point (6.00289e-06,0)
i1: Removing PWL point (6.00308e-06,0)
i1: Removing PWL point (7.00284e-06,0)
i1: Removing PWL point (7.00298e-06,0)
i1: Removing PWL point (8.00374e-06,0)
i1: Removing PWL point (8.00389e-06,0)
i1: Removing PWL point (9.00286e-06,0)
i1: Removing PWL point (9.00294e-06,0)
i1: Removing PWL point (1.00025e-05,0)
i1: Removing PWL point (1.00026e-05,0)
i1: Removing PWL point (1.00026e-05,0)
i1: Removing PWL point (1.00026e-05,0)
i1: Removing PWL point (1.00026e-05,0)
i1: Removing PWL point (1.00026e-05,0)
i1: Removing PWL point (1.00027e-05,0)
i1: Removing PWL point (1.1003e-05,0)
i1: Removing PWL point (1.10032e-05,0)
i1: Removing PWL point (1.20029e-05,0)
i1: Removing PWL point (1.2003e-05,0)
i1: Removing PWL point (1.2003e-05,0)
i1: Removing PWL point (1.20031e-05,0)
i1: Removing PWL point (1.30031e-05,0)
i1: Removing PWL point (1.30031e-05,0)
i1: Removing PWL point (1.30032e-05,0)
i1: Removing PWL point (1.40026e-05,0)
i1: Removing PWL point (1.40026e-05,0)
i1: Removing PWL point (1.40026e-05,0)
i1: Removing PWL point (1.40026e-05,0)
i1: Removing PWL point (1.40026e-05,0)
i1: Removing PWL point (1.40026e-05,0)
i1: Removing PWL point (1.40027e-05,0)
i1: Removing PWL point (1.40027e-05,0)
i1: Removing PWL point (1.50028e-05,0)
i1: Removing PWL point (1.5003e-05,0)
i1: Removing PWL point (1.60039e-05,0)
i1: Removing PWL point (1.70025e-05,0)
i1: Removing PWL point (1.70025e-05,0)
i1: Removing PWL point (1.70025e-05,0)
i1: Removing PWL point (1.70025e-05,0)
i1: Removing PWL point (1.70026e-05,0)
i1: Removing PWL point (1.70026e-05,0)
i1: Removing PWL point (1.70026e-05,0)
i1: Removing PWL point (1.70026e-05,0)
i1: Removing PWL point (1.80023e-05,0)
i1: Removing PWL point (1.80023e-05,0)
i1: Removing PWL point (1.80023e-05,0)
i1: Removing PWL point (1.80023e-05,0)
i1: Removing PWL point (1.80023e-05,0)
i1: Removing PWL point (1.80024e-05,0)
i1: Removing PWL point (1.80024e-05,0)
i1: Removing PWL point (1.80024e-05,0)
i1: Removing PWL point (1.80024e-05,0)
i1: Removing PWL point (1.80024e-05,0)
i1: Removing PWL point (1.80024e-05,0)
i1: Removing PWL point (1.80024e-05,0)
i1: Removing PWL point (1.80024e-05,0)
i1: Removing PWL point (1.80024e-05,0)
i1: Removing PWL point (1.80024e-05,0)
i1: Removing PWL point (1.80024e-05,0)
i1: Removing PWL point (1.80024e-05,0)
i1: Removing PWL point (1.80024e-05,0)
i1: Removing PWL point (1.80024e-05,0)
i1: Removing PWL point (1.80025e-05,0)
i1: Removing PWL point (1.80025e-05,0)
i1: Removing PWL point (1.80025e-05,0)
i1: Removing PWL point (1.80025e-05,0)
i1: Removing PWL point (1.80025e-05,0)
i1: Removing PWL point (1.80025e-05,0)
i1: Removing PWL point (1.80025e-05,0)
i1: Removing PWL point (1.80025e-05,0)
i1: Removing PWL point (1.90029e-05,0)
i1: Removing PWL point (1.90029e-05,0)
i1: Removing PWL point (1.9003e-05,0)
i1: Removing PWL point (2.00031e-05,0)
i1: Removing PWL point (2.00031e-05,0)
i1: Removing PWL point (2.00032e-05,0)
i1: Removing PWL point (2.10029e-05,0)
i1: Removing PWL point (2.10029e-05,0)
i1: Removing PWL point (2.1003e-05,0)
i1: Removing PWL point (2.20028e-05,0)
i1: Removing PWL point (2.20029e-05,0)
i1: Removing PWL point (2.2003e-05,0)
i1: Removing PWL point (2.30029e-05,0)
i1: Removing PWL point (2.40027e-05,0)
i1: Removing PWL point (2.40028e-05,0)
i1: Removing PWL point (2.40028e-05,0)
i1: Removing PWL point (2.40029e-05,0)
i1: Removing PWL point (2.50025e-05,0)
i1: Removing PWL point (2.50026e-05,0)
i1: Removing PWL point (2.50026e-05,0)
i1: Removing PWL point (2.50026e-05,0)
i1: Removing PWL point (2.50027e-05,0)
i1: Removing PWL point (2.50027e-05,0)
i1: Removing PWL point (2.50027e-05,0)
i1: Removing PWL point (2.50027e-05,0)
i1: Removing PWL point (2.60029e-05,0)
i1: Removing PWL point (2.6003e-05,0)
i1: Removing PWL point (2.70033e-05,0)
i1: Removing PWL point (2.70034e-05,0)
i1: Removing PWL point (2.80028e-05,0)
i1: Removing PWL point (2.80028e-05,0)
i1: Removing PWL point (2.80029e-05,0)
i1: Removing PWL point (2.80029e-05,0)
i1: Removing PWL point (2.80029e-05,0)
i1: Removing PWL point (3.10028e-05,0)
i1: Removing PWL point (3.10028e-05,0)
i1: Removing PWL point (3.10029e-05,0)
i1: Removing PWL point (3.1003e-05,0)
i1: Removing PWL point (3.20026e-05,0)
i1: Removing PWL point (3.20027e-05,0)
i1: Removing PWL point (3.20027e-05,0)
i1: Removing PWL point (3.20027e-05,0)
i1: Removing PWL point (3.20028e-05,0)
i1: Removing PWL point (3.20028e-05,0)
i1: Removing PWL point (3.30027e-05,0)
i1: Removing PWL point (3.30028e-05,0)
i1: Removing PWL point (3.30028e-05,0)
i1: Removing PWL point (3.30028e-05,0)
i1: Removing PWL point (3.50028e-05,0)
i1: Removing PWL point (3.50028e-05,0)
i1: Removing PWL point (3.50029e-05,0)
i1: Removing PWL point (3.50029e-05,0)
i1: Removing PWL point (3.5003e-05,0)
i1: Removing PWL point (3.60033e-05,0)
i1: Removing PWL point (3.80025e-05,0)
i1: Removing PWL point (3.90029e-05,0)
i1: Removing PWL point (3.9003e-05,0)
i1: Removing PWL point (4.00029e-05,0)
i1: Removing PWL point (4.00029e-05,0)
i1: Removing PWL point (4.10028e-05,0)
i1: Removing PWL point (4.10029e-05,0)
i1: Removing PWL point (4.10029e-05,0)
i1: Removing PWL point (4.1003e-05,0)
i1: Removing PWL point (4.1003e-05,0)
i1: Removing PWL point (4.20023e-05,0)
i1: Removing PWL point (4.20023e-05,0)
i1: Removing PWL point (4.20023e-05,0)
i1: Removing PWL point (4.20023e-05,0)
i1: Removing PWL point (4.20023e-05,0)
i1: Removing PWL point (4.20024e-05,0)
i1: Removing PWL point (4.20024e-05,0)
i1: Removing PWL point (4.20024e-05,0)
i1: Removing PWL point (4.20024e-05,0)
i1: Removing PWL point (4.20024e-05,0)
i1: Removing PWL point (4.20024e-05,0)
i1: Removing PWL point (4.20024e-05,0)
i1: Removing PWL point (4.20024e-05,0)
i1: Removing PWL point (4.20024e-05,0)
i1: Removing PWL point (4.20024e-05,0)
i1: Removing PWL point (4.20024e-05,0)
i1: Removing PWL point (4.20024e-05,0)
i1: Removing PWL point (4.20024e-05,0)
i1: Removing PWL point (4.20024e-05,0)
i1: Removing PWL point (4.20024e-05,0)
i1: Removing PWL point (4.20024e-05,0)
i1: Removing PWL point (4.20024e-05,0)
i1: Removing PWL point (4.20024e-05,0)
i1: Removing PWL point (4.20024e-05,0)
i1: Removing PWL point (4.20024e-05,0)
i1: Removing PWL point (4.20024e-05,0)
i1: Removing PWL point (4.20025e-05,0)
i1: Removing PWL point (4.20025e-05,0)
i1: Removing PWL point (4.20025e-05,0)
i1: Removing PWL point (4.20025e-05,0)
i1: Removing PWL point (4.20025e-05,0)
i1: Removing PWL point (4.20025e-05,0)
i1: Removing PWL point (4.20025e-05,0)
i1: Removing PWL point (4.20025e-05,0)
i1: Removing PWL point (4.20025e-05,0)
i1: Removing PWL point (4.20025e-05,0)
i1: Removing PWL point (4.20025e-05,0)
i1: Removing PWL point (4.20025e-05,0)
i1: Removing PWL point (4.3003e-05,0)
i1: Removing PWL point (4.30031e-05,0)
i1: Removing PWL point (4.40026e-05,0)
i1: Removing PWL point (4.40027e-05,0)
i1: Removing PWL point (4.40027e-05,0)
i1: Removing PWL point (4.40027e-05,0)
i1: Removing PWL point (4.40027e-05,0)
i1: Removing PWL point (4.40028e-05,0)
i1: Removing PWL point (4.40028e-05,0)
i1: Removing PWL point (4.50029e-05,0)
i1: Removing PWL point (4.50029e-05,0)
i1: Removing PWL point (4.60027e-05,0)
i1: Removing PWL point (4.60028e-05,0)
i1: Removing PWL point (4.60029e-05,0)
i1: Removing PWL point (4.7003e-05,0)
i1: Removing PWL point (4.70031e-05,0)
i1: Removing PWL point (4.70033e-05,0)
i1: Removing PWL point (4.8003e-05,0)
i1: Removing PWL point (4.80031e-05,0)
i1: Removing PWL point (4.90025e-05,0)
i1: Removing PWL point (4.90025e-05,0)
i1: Removing PWL point (4.90025e-05,0)
i1: Removing PWL point (4.90025e-05,0)
i1: Removing PWL point (4.90025e-05,0)
i1: Removing PWL point (4.90026e-05,0)
i1: Removing PWL point (4.90026e-05,0)
i1: Removing PWL point (4.90026e-05,0)
i1: Removing PWL point (5.00029e-05,0)
i1: Removing PWL point (5.1003e-05,0)
i1: Removing PWL point (5.10032e-05,0)
i1: Removing PWL point (5.10033e-05,0)
i1: Removing PWL point (5.20035e-05,0)
i1: Removing PWL point (5.20036e-05,0)
i1: Removing PWL point (5.30026e-05,0)
i1: Removing PWL point (5.30026e-05,0)
i1: Removing PWL point (5.30027e-05,0)
i1: Removing PWL point (5.30027e-05,0)
i1: Removing PWL point (5.30027e-05,0)
i1: Removing PWL point (5.50031e-05,0)
i1: Removing PWL point (5.50032e-05,0)
i1: Removing PWL point (5.60029e-05,0)
i1: Removing PWL point (5.6003e-05,0)
i1: Removing PWL point (5.6003e-05,0)
i1: Removing PWL point (5.60031e-05,0)
i1: Removing PWL point (5.60031e-05,0)
i1: Removing PWL point (5.70031e-05,0)
i1: Removing PWL point (5.80028e-05,0)
i1: Removing PWL point (5.80029e-05,0)
i1: Removing PWL point (5.90025e-05,0)
i1: Removing PWL point (5.90026e-05,0)
i1: Removing PWL point (6.10029e-05,0)
i1: Removing PWL point (6.1003e-05,0)
i1: Removing PWL point (6.20028e-05,0)
i1: Removing PWL point (6.20028e-05,0)
i1: Removing PWL point (6.20029e-05,0)
i1: Removing PWL point (6.30031e-05,0)
i1: Removing PWL point (6.30031e-05,0)
i1: Removing PWL point (6.30031e-05,0)
i1: Removing PWL point (6.40034e-05,0)
i1: Removing PWL point (6.50027e-05,0)
i1: Removing PWL point (6.50027e-05,0)
i1: Removing PWL point (6.50028e-05,0)
i1: Removing PWL point (6.50028e-05,0)
i1: Removing PWL point (6.50029e-05,0)
i1: Removing PWL point (6.60033e-05,0)
i1: Removing PWL point (6.7003e-05,0)
i1: Removing PWL point (6.70031e-05,0)
i1: Removing PWL point (6.70031e-05,0)
i1: Removing PWL point (6.70032e-05,0)
i1: Removing PWL point (6.80033e-05,0)
i1: Removing PWL point (6.90035e-05,0)
i1: Removing PWL point (6.90036e-05,0)
i1: Removing PWL point (7.00029e-05,0)
i1: Removing PWL point (7.0003e-05,0)
i1: Removing PWL point (7.1003e-05,0)
i1: Removing PWL point (7.10031e-05,0)
i1: Removing PWL point (7.20032e-05,0)
i1: Removing PWL point (7.20033e-05,0)
i1: Removing PWL point (7.30028e-05,0)
i1: Removing PWL point (7.30029e-05,0)
i1: Removing PWL point (7.40029e-05,0)
i1: Removing PWL point (7.4003e-05,0)
i1: Removing PWL point (7.50036e-05,0)
i1: Removing PWL point (7.60033e-05,0)
i1: Removing PWL point (7.7003e-05,0)
i1: Removing PWL point (7.70032e-05,0)
i1: Removing PWL point (7.80029e-05,0)
i1: Removing PWL point (7.8003e-05,0)
i1: Removing PWL point (7.9003e-05,0)
i1: Removing PWL point (7.90031e-05,0)
i1: Removing PWL point (7.90032e-05,0)
i1: Removing PWL point (8.00038e-05,0)
i1: Removing PWL point (8.10027e-05,0)
i1: Removing PWL point (8.10028e-05,0)
i1: Removing PWL point (8.10028e-05,0)
i1: Removing PWL point (8.10029e-05,0)
i1: Removing PWL point (8.10029e-05,0)
i1: Removing PWL point (8.1003e-05,0)
i1: Removing PWL point (8.20028e-05,0)
i1: Removing PWL point (8.20029e-05,0)
i1: Removing PWL point (8.20029e-05,0)
i1: Removing PWL point (8.30029e-05,0)
i1: Removing PWL point (8.30031e-05,0)
i1: Removing PWL point (8.40036e-05,0)
i1: Removing PWL point (8.40037e-05,0)
i1: Removing PWL point (8.50033e-05,0)
i1: Removing PWL point (8.60022e-05,0)
i1: Removing PWL point (8.60023e-05,0)
i1: Removing PWL point (8.60023e-05,0)
i1: Removing PWL point (8.60023e-05,0)
i1: Removing PWL point (8.60023e-05,0)
i1: Removing PWL point (8.60023e-05,0)
i1: Removing PWL point (8.60023e-05,0)
i1: Removing PWL point (8.60023e-05,0)
i1: Removing PWL point (8.60023e-05,0)
i1: Removing PWL point (8.60023e-05,0)
i1: Removing PWL point (8.60023e-05,0)
i1: Removing PWL point (8.60023e-05,0)
i1: Removing PWL point (8.60023e-05,0)
i1: Removing PWL point (8.60023e-05,0)
i1: Removing PWL point (8.60023e-05,0)
i1: Removing PWL point (8.60023e-05,0)
i1: Removing PWL point (8.60023e-05,0)
i1: Removing PWL point (8.60023e-05,0)
i1: Removing PWL point (8.60023e-05,0)
i1: Removing PWL point (8.60023e-05,0)
i1: Removing PWL point (8.60023e-05,0)
i1: Removing PWL point (8.60023e-05,0)
i1: Removing PWL point (8.60023e-05,0)
i1: Removing PWL point (8.60023e-05,0)
i1: Removing PWL point (8.60023e-05,0)
i1: Removing PWL point (8.60023e-05,0)
i1: Removing PWL point (8.60023e-05,0)
i1: Removing PWL point (8.60023e-05,0)
i1: Removing PWL point (8.60023e-05,0)
i1: Removing PWL point (8.60023e-05,0)
i1: Removing PWL point (8.60023e-05,0)
i1: Removing PWL point (8.60024e-05,0)
i1: Removing PWL point (8.70026e-05,0)
i1: Removing PWL point (8.80029e-05,0)
i1: Removing PWL point (8.8003e-05,0)
i1: Removing PWL point (8.80031e-05,0)
i1: Removing PWL point (9.00027e-05,0)
i1: Removing PWL point (9.00028e-05,0)
i1: Removing PWL point (9.00029e-05,0)
i1: Removing PWL point (9.00029e-05,0)
i1: Removing PWL point (9.00029e-05,0)
i1: Removing PWL point (9.0003e-05,0)
i1: Removing PWL point (9.10027e-05,0)
i1: Removing PWL point (9.10027e-05,0)
i1: Removing PWL point (9.10028e-05,0)
i1: Removing PWL point (9.10028e-05,0)
i1: Removing PWL point (9.10029e-05,0)
i1: Removing PWL point (9.30029e-05,0)
i1: Removing PWL point (9.3003e-05,0)
i1: Removing PWL point (9.30031e-05,0)
i1: Removing PWL point (9.4003e-05,0)
i1: Removing PWL point (9.40031e-05,0)
i1: Removing PWL point (9.50033e-05,0)
i1: Removing PWL point (9.50033e-05,0)
i1: Removing PWL point (9.50034e-05,0)
i1: Removing PWL point (9.60035e-05,0)
i1: Removing PWL point (9.70033e-05,0)
i1: Removing PWL point (9.80035e-05,0)
i1: Removing PWL point (9.80036e-05,0)
i1: Removing PWL point (9.90033e-05,0)
i1: Removing PWL point (9.90035e-05,0)
i1: Removing PWL point (0.000100003,0)
i1: Removing PWL point (0.000100003,0)
i1: Removing PWL point (0.000100003,0)
i1: Removing PWL point (0.000101003,0)
i1: Removing PWL point (0.000102003,0)
i1: Removing PWL point (0.000102004,0)
i1: Removing PWL point (0.000104004,0)
i1: Removing PWL point (0.000104004,0)
i1: Removing PWL point (0.000105003,0)
i1: Removing PWL point (0.000105003,0)
i1: Removing PWL point (0.000106003,0)
i1: Removing PWL point (0.000106003,0)
i1: Removing PWL point (0.000106003,0)
i1: Removing PWL point (0.000107003,0)
i1: Removing PWL point (0.000108003,0)
i1: Removing PWL point (0.000109003,0)
i1: Removing PWL point (0.000109003,0)
i1: Removing PWL point (0.000109003,0)
i1: Removing PWL point (0.000109003,0)
i1: Removing PWL point (0.000109003,0)
i1: Removing PWL point (0.000109003,0)
i1: Removing PWL point (0.000109003,0)
i1: Removing PWL point (0.000109003,0)
i1: Removing PWL point (0.000110003,0)
i1: Removing PWL point (0.000110003,0)
i1: Removing PWL point (0.000110003,0)
i1: Removing PWL point (0.000110003,0)
i1: Removing PWL point (0.000111003,0)
i1: Removing PWL point (0.000111003,0)
i1: Removing PWL point (0.000112003,0)
i1: Removing PWL point (0.000112004,0)
i1: Removing PWL point (0.000113003,0)
i1: Removing PWL point (0.000113003,0)
i1: Removing PWL point (0.000113003,0)
i1: Removing PWL point (0.000115003,0)
i1: Removing PWL point (0.000115003,0)
i1: Removing PWL point (0.000115003,0)
i1: Removing PWL point (0.000115003,0)
i1: Removing PWL point (0.000115003,0)
i1: Removing PWL point (0.000115003,0)
i1: Removing PWL point (0.000117004,0)
i1: Removing PWL point (0.000119003,0)
i1: Removing PWL point (0.000119003,0)
i1: Removing PWL point (0.000119003,0)
i1: Removing PWL point (0.000119003,0)
i1: Removing PWL point (0.000120003,0)
i1: Removing PWL point (0.000120004,0)
i1: Removing PWL point (0.000121003,0)
i1: Removing PWL point (0.000121003,0)
i1: Removing PWL point (0.000122003,0)
i1: Removing PWL point (0.000122003,0)
i1: Removing PWL point (0.000122003,0)
i1: Removing PWL point (0.000122003,0)
i1: Removing PWL point (0.000122003,0)
i1: Removing PWL point (0.000122003,0)
i1: Removing PWL point (0.000122003,0)
i1: Removing PWL point (0.000123003,0)
i1: Removing PWL point (0.000123003,0)
i1: Removing PWL point (0.000123003,0)
i1: Removing PWL point (0.000123003,0)
i1: Removing PWL point (0.000124003,0)
i1: Removing PWL point (0.000124003,0)
i1: Removing PWL point (0.000124003,0)
i1: Removing PWL point (0.000125003,0)
i1: Removing PWL point (0.000126002,0)
i1: Removing PWL point (0.000126002,0)
i1: Removing PWL point (0.000126002,0)
i1: Removing PWL point (0.000126002,0)
i1: Removing PWL point (0.000126002,0)
i1: Removing PWL point (0.000126002,0)
i1: Removing PWL point (0.000126002,0)
i1: Removing PWL point (0.000126002,0)
i1: Removing PWL point (0.000126002,0)
i1: Removing PWL point (0.000126002,0)
i1: Removing PWL point (0.000126002,0)
i1: Removing PWL point (0.000126002,0)
i1: Removing PWL point (0.000126002,0)
i1: Removing PWL point (0.000126002,0)
i1: Removing PWL point (0.000126002,0)
i1: Removing PWL point (0.000126003,0)
i1: Removing PWL point (0.000126003,0)
i1: Removing PWL point (0.000126003,0)
i1: Removing PWL point (0.000126003,0)
i1: Removing PWL point (0.000126003,0)
i1: Removing PWL point (0.000126003,0)
i1: Removing PWL point (0.000126003,0)
i1: Removing PWL point (0.000126003,0)
i1: Removing PWL point (0.000126003,0)
i1: Removing PWL point (0.000126003,0)
i1: Removing PWL point (0.000127003,0)
i1: Removing PWL point (0.000127003,0)
i1: Removing PWL point (0.000127003,0)
i1: Removing PWL point (0.000128003,0)
i1: Removing PWL point (0.000128003,0)
i1: Removing PWL point (0.000129003,0)
i1: Removing PWL point (0.000129003,0)
i1: Removing PWL point (0.000129003,0)
i1: Removing PWL point (0.000129003,0)
i1: Removing PWL point (0.000129003,0)
i1: Removing PWL point (0.000129003,0)
i1: Removing PWL point (0.000129003,0)
i1: Removing PWL point (0.000129003,0)
i1: Removing PWL point (0.000129003,0)
i1: Removing PWL point (0.000129003,0)
i1: Removing PWL point (0.000129003,0)
i1: Removing PWL point (0.000129003,0)
i1: Removing PWL point (0.000129003,0)
i1: Removing PWL point (0.000130003,0)
i1: Removing PWL point (0.000130003,0)
i1: Removing PWL point (0.000131003,0)
i1: Removing PWL point (0.000131003,0)
i1: Removing PWL point (0.000133003,0)
i1: Removing PWL point (0.000133003,0)
i1: Removing PWL point (0.000133003,0)
i1: Removing PWL point (0.000137003,0)
i1: Removing PWL point (0.000137003,0)
i1: Removing PWL point (0.000138003,0)
i1: Removing PWL point (0.000138003,0)
i1: Removing PWL point (0.000138003,0)
i1: Removing PWL point (0.000138003,0)
i1: Removing PWL point (0.000138003,0)
i1: Removing PWL point (0.000138003,0)
i1: Removing PWL point (0.000138003,0)
i1: Removing PWL point (0.000139003,0)
i1: Removing PWL point (0.000139003,0)
i1: Removing PWL point (0.000140003,0)
i1: Removing PWL point (0.000140003,0)
i1: Removing PWL point (0.000141003,0)
i1: Removing PWL point (0.000141003,0)
i1: Removing PWL point (0.000142003,0)
i1: Removing PWL point (0.000142003,0)
i1: Removing PWL point (0.000143003,0)
i1: Removing PWL point (0.000144003,0)
i1: Removing PWL point (0.000144003,0)
i1: Removing PWL point (0.000145004,0)
i1: Removing PWL point (0.000145004,0)
i1: Removing PWL point (0.000146003,0)
i1: Removing PWL point (0.000146003,0)
i1: Removing PWL point (0.000147003,0)
i1: Removing PWL point (0.000147003,0)
i1: Removing PWL point (0.000147003,0)
i1: Removing PWL point (0.000147003,0)
i1: Removing PWL point (0.000147003,0)
i1: Removing PWL point (0.000149003,0)
i1: Removing PWL point (0.000150003,0)
i1: Removing PWL point (0.000150003,0)
i1: Removing PWL point (0.000152003,0)
i1: Removing PWL point (0.000152003,0)
i1: Removing PWL point (0.000152003,0)
i1: Removing PWL point (0.000152003,0)
i1: Removing PWL point (0.000152003,0)
i1: Removing PWL point (0.000152003,0)
i1: Removing PWL point (0.000152003,0)
i1: Removing PWL point (0.000152003,0)
i1: Removing PWL point (0.000152003,0)
i1: Removing PWL point (0.000153003,0)
i1: Removing PWL point (0.000153003,0)
i1: Removing PWL point (0.000153003,0)
i1: Removing PWL point (0.000154003,0)
i1: Removing PWL point (0.000155003,0)
i1: Removing PWL point (0.000155003,0)
i1: Removing PWL point (0.000156003,0)
i1: Removing PWL point (0.000156003,0)
i1: Removing PWL point (0.000156003,0)
i1: Removing PWL point (0.000156003,0)
i1: Removing PWL point (0.000157004,0)
i1: Removing PWL point (0.000159003,0)
i1: Removing PWL point (0.000159003,0)
i1: Removing PWL point (0.000159003,0)
i1: Removing PWL point (0.000159003,0)
i1: Removing PWL point (0.000160003,0)
i1: Removing PWL point (0.000160003,0)
i1: Removing PWL point (0.000160003,0)
i1: Removing PWL point (0.000161003,0)
i1: Removing PWL point (0.000161003,0)
i1: Removing PWL point (0.000161003,0)
i1: Removing PWL point (0.000162003,0)
i1: Removing PWL point (0.000162003,0)
i1: Removing PWL point (0.000162003,0)
i1: Removing PWL point (0.000163003,0)
i1: Removing PWL point (0.000164002,0)
i1: Removing PWL point (0.000164002,0)
i1: Removing PWL point (0.000164003,0)
i1: Removing PWL point (0.000164003,0)
i1: Removing PWL point (0.000164003,0)
i1: Removing PWL point (0.000164003,0)
i1: Removing PWL point (0.000164003,0)
i1: Removing PWL point (0.000164003,0)
i1: Removing PWL point (0.000164003,0)
i1: Removing PWL point (0.000164003,0)
i1: Removing PWL point (0.000164003,0)
i1: Removing PWL point (0.000165002,0)
i1: Removing PWL point (0.000165002,0)
i1: Removing PWL point (0.000165002,0)
i1: Removing PWL point (0.000166002,0)
i1: Removing PWL point (0.000166002,0)
i1: Removing PWL point (0.000166002,0)
i1: Removing PWL point (0.000166002,0)
i1: Removing PWL point (0.000166002,0)
i1: Removing PWL point (0.000166002,0)
i1: Removing PWL point (0.000166002,0)
i1: Removing PWL point (0.000166002,0)
i1: Removing PWL point (0.000166002,0)
i1: Removing PWL point (0.000166002,0)
i1: Removing PWL point (0.000166002,0)
i1: Removing PWL point (0.000166002,0)
i1: Removing PWL point (0.000166002,0)
i1: Removing PWL point (0.000166002,0)
i1: Removing PWL point (0.000166002,0)
i1: Removing PWL point (0.000166002,0)
i1: Removing PWL point (0.000166002,0)
i1: Removing PWL point (0.000166002,0)
i1: Removing PWL point (0.000166002,0)
i1: Removing PWL point (0.000166002,0)
i1: Removing PWL point (0.000166002,0)
i1: Removing PWL point (0.000166002,0)
i1: Removing PWL point (0.000166002,0)
i1: Removing PWL point (0.000166002,0)
i1: Removing PWL point (0.000166002,0)
i1: Removing PWL point (0.000166002,0)
i1: Removing PWL point (0.000166002,0)
i1: Removing PWL point (0.000166002,0)
i1: Removing PWL point (0.000166002,0)
i1: Removing PWL point (0.000166002,0)
i1: Removing PWL point (0.000166002,0)
i1: Removing PWL point (0.000166002,0)
i1: Removing PWL point (0.000166002,0)
i1: Removing PWL point (0.000166002,0)
i1: Removing PWL point (0.000166002,0)
i1: Removing PWL point (0.000166002,0)
i1: Removing PWL point (0.000166002,0)
i1: Removing PWL point (0.000166002,0)
i1: Removing PWL point (0.000166002,0)
i1: Removing PWL point (0.000166002,0)
i1: Removing PWL point (0.000166002,0)
i1: Removing PWL point (0.000166002,0)
i1: Removing PWL point (0.000166002,0)
i1: Removing PWL point (0.000167003,0)
i1: Removing PWL point (0.000167003,0)
i1: Removing PWL point (0.000167003,0)
i1: Removing PWL point (0.000167003,0)
i1: Removing PWL point (0.000167003,0)
i1: Removing PWL point (0.000167003,0)
i1: Removing PWL point (0.000168004,0)
i1: Removing PWL point (0.000169003,0)
i1: Removing PWL point (0.000169003,0)
i1: Removing PWL point (0.000169003,0)
i1: Removing PWL point (0.000170003,0)
i1: Removing PWL point (0.000171003,0)
i1: Removing PWL point (0.000171003,0)
i1: Removing PWL point (0.000171003,0)
i1: Removing PWL point (0.000172003,0)
i1: Removing PWL point (0.000172003,0)
i1: Removing PWL point (0.000174003,0)
i1: Removing PWL point (0.000174003,0)
i1: Removing PWL point (0.000174003,0)
i1: Removing PWL point (0.000175003,0)
i1: Removing PWL point (0.000175003,0)
i1: Removing PWL point (0.000175003,0)
i1: Removing PWL point (0.000176003,0)
i1: Removing PWL point (0.000176003,0)
i1: Removing PWL point (0.000176003,0)
i1: Removing PWL point (0.000177003,0)
i1: Removing PWL point (0.000177003,0)
i1: Removing PWL point (0.000178003,0)
i1: Removing PWL point (0.000178003,0)
i1: Removing PWL point (0.000178003,0)
i1: Removing PWL point (0.000179003,0)
i1: Removing PWL point (0.000180003,0)
i1: Removing PWL point (0.000181002,0)
i1: Removing PWL point (0.000181002,0)
i1: Removing PWL point (0.000181002,0)
i1: Removing PWL point (0.000181003,0)
i1: Removing PWL point (0.000181003,0)
i1: Removing PWL point (0.000181003,0)
i1: Removing PWL point (0.000181003,0)
i1: Removing PWL point (0.000181003,0)
i1: Removing PWL point (0.000181003,0)
i1: Removing PWL point (0.000181003,0)
i1: Removing PWL point (0.000181003,0)
i1: Removing PWL point (0.000181003,0)
i1: Removing PWL point (0.000181003,0)
i1: Removing PWL point (0.000181003,0)
i1: Removing PWL point (0.000182003,0)
i1: Removing PWL point (0.000182003,0)
i1: Removing PWL point (0.000182003,0)
i1: Removing PWL point (0.000182003,0)
i1: Removing PWL point (0.000182003,0)
i1: Removing PWL point (0.000182003,0)
i1: Removing PWL point (0.000182003,0)
i1: Removing PWL point (0.000182003,0)
i1: Removing PWL point (0.000182003,0)
i1: Removing PWL point (0.000183003,0)
i1: Removing PWL point (0.000184003,0)
i1: Removing PWL point (0.000184003,0)
i1: Removing PWL point (0.000184003,0)
i1: Removing PWL point (0.000184003,0)
i1: Removing PWL point (0.000184003,0)
i1: Removing PWL point (0.000184003,0)
i1: Removing PWL point (0.000185003,0)
i1: Removing PWL point (0.000185003,0)
i1: Removing PWL point (0.000186003,0)
i1: Removing PWL point (0.000187003,0)
i1: Removing PWL point (0.000187003,0)
i1: Removing PWL point (0.000187003,0)
i1: Removing PWL point (0.000187003,0)
i1: Removing PWL point (0.000188003,0)
i1: Removing PWL point (0.000188003,0)
i1: Removing PWL point (0.000188003,0)
i1: Removing PWL point (0.000188003,0)
i1: Removing PWL point (0.000189003,0)
i1: Removing PWL point (0.000189003,0)
i1: Removing PWL point (0.000190003,0)
i1: Removing PWL point (0.000190003,0)
i1: Removing PWL point (0.000190003,0)
i1: Removing PWL point (0.000191003,0)
i1: Removing PWL point (0.000191003,0)
i1: Removing PWL point (0.000191003,0)
i1: Removing PWL point (0.000191003,0)
i1: Removing PWL point (0.000192003,0)
i1: Removing PWL point (0.000192003,0)
i1: Removing PWL point (0.000193003,0)
i1: Removing PWL point (0.000193003,0)
i1: Removing PWL point (0.000194003,0)
i1: Removing PWL point (0.000195003,0)
i1: Removing PWL point (0.000195003,0)
i1: Removing PWL point (0.000196003,0)
i1: Removing PWL point (0.000196003,0)
i1: Removing PWL point (0.000197004,0)
i1: Removing PWL point (0.000198003,0)
i1: Removing PWL point (0.000198003,0)
i1: Removing PWL point (0.000199002,0)
i1: Removing PWL point (0.000199002,0)
i1: Removing PWL point (0.000199002,0)
i1: Removing PWL point (0.000199002,0)
i1: Removing PWL point (0.000199002,0)
i1: Removing PWL point (0.000199002,0)
i1: Removing PWL point (0.000199002,0)
i1: Removing PWL point (0.000199002,0)
i1: Removing PWL point (0.000199002,0)
i1: Removing PWL point (0.000199003,0)
i1: Removing PWL point (0.000199003,0)
i1: Removing PWL point (0.000199003,0)
i1: Removing PWL point (0.000199003,0)
i1: Removing PWL point (0.000199003,0)
i1: Removing PWL point (0.000200003,0)
i1: Removing PWL point (0.000200003,0)
i1: Removing PWL point (0.000201003,0)
i1: Removing PWL point (0.000202003,0)
i1: Removing PWL point (0.000202003,0)
i1: Removing PWL point (0.000202003,0)
i1: Removing PWL point (0.000202003,0)
i1: Removing PWL point (0.000203003,0)
i1: Removing PWL point (0.000203003,0)
i1: Removing PWL point (0.000204003,0)
i1: Removing PWL point (0.000204003,0)
i1: Removing PWL point (0.000205003,0)
i1: Removing PWL point (0.000205003,0)
i1: Removing PWL point (0.000205003,0)
i1: Removing PWL point (0.000206003,0)
i1: Removing PWL point (0.000206003,0)
i1: Removing PWL point (0.000208003,0)
i1: Removing PWL point (0.000208003,0)
i1: Removing PWL point (0.000208003,0)
i1: Removing PWL point (0.000210003,0)
i1: Removing PWL point (0.000210003,0)
i1: Removing PWL point (0.000210003,0)
i1: Removing PWL point (0.000211002,0)
i1: Removing PWL point (0.000211002,0)
i1: Removing PWL point (0.000211003,0)
i1: Removing PWL point (0.000211003,0)
i1: Removing PWL point (0.000211003,0)
i1: Removing PWL point (0.000211003,0)
i1: Removing PWL point (0.000211003,0)
i1: Removing PWL point (0.000211003,0)
i1: Removing PWL point (0.000211003,0)
i1: Removing PWL point (0.000211003,0)
i1: Removing PWL point (0.000211003,0)
i1: Removing PWL point (0.000211003,0)
i1: Removing PWL point (0.000212003,0)
i1: Removing PWL point (0.000212003,0)
i1: Removing PWL point (0.000212003,0)
i1: Removing PWL point (0.000212003,0)
i1: Removing PWL point (0.000213003,0)
i1: Removing PWL point (0.000214003,0)
i1: Removing PWL point (0.000214003,0)
i1: Removing PWL point (0.000215003,0)
i1: Removing PWL point (0.000215003,0)
i1: Removing PWL point (0.000215003,0)
i1: Removing PWL point (0.000216003,0)
i1: Removing PWL point (0.000216003,0)
i1: Removing PWL point (0.000216003,0)
i1: Removing PWL point (0.000216003,0)
i1: Removing PWL point (0.000216003,0)
i1: Removing PWL point (0.000216003,0)
i1: Removing PWL point (0.000216003,0)
i1: Removing PWL point (0.000217003,0)
i1: Removing PWL point (0.000217003,0)
i1: Removing PWL point (0.000217003,0)
i1: Removing PWL point (0.000218003,0)
i1: Removing PWL point (0.000221003,0)
i1: Removing PWL point (0.000221003,0)
i1: Removing PWL point (0.000221003,0)
i1: Removing PWL point (0.000221003,0)
i1: Removing PWL point (0.000221003,0)
i1: Removing PWL point (0.000222003,0)
i1: Removing PWL point (0.000222003,0)
i1: Removing PWL point (0.000224003,0)
i1: Removing PWL point (0.000224003,0)
i1: Removing PWL point (0.000224003,0)
i1: Removing PWL point (0.000225003,0)
i1: Removing PWL point (0.000226003,0)
i1: Removing PWL point (0.000226003,0)
i1: Removing PWL point (0.000226003,0)
i1: Removing PWL point (0.000226003,0)
i1: Removing PWL point (0.000226003,0)
i1: Removing PWL point (0.000226003,0)
i1: Removing PWL point (0.000227004,0)
i1: Removing PWL point (0.000227004,0)
i1: Removing PWL point (0.000228003,0)
i1: Removing PWL point (0.000228003,0)
i1: Removing PWL point (0.000228003,0)
i1: Removing PWL point (0.000228003,0)
i1: Removing PWL point (0.000229003,0)
i1: Removing PWL point (0.000229003,0)
i1: Removing PWL point (0.000229003,0)
i1: Removing PWL point (0.000231002,0)
i1: Removing PWL point (0.000231003,0)
i1: Removing PWL point (0.000231003,0)
i1: Removing PWL point (0.000231003,0)
i1: Removing PWL point (0.000231003,0)
i1: Removing PWL point (0.000231003,0)
i1: Removing PWL point (0.000231003,0)
i1: Removing PWL point (0.000232003,0)
i1: Removing PWL point (0.000232003,0)
i1: Removing PWL point (0.000233003,0)
i1: Removing PWL point (0.000234003,0)
i1: Removing PWL point (0.000234003,0)
i1: Removing PWL point (0.000234003,0)
i1: Removing PWL point (0.000235003,0)
i1: Removing PWL point (0.000235003,0)
i1: Removing PWL point (0.000236003,0)
i1: Removing PWL point (0.000236003,0)
i1: Removing PWL point (0.000237003,0)
i1: Removing PWL point (0.000237003,0)
i1: Removing PWL point (0.000237003,0)
i1: Removing PWL point (0.000237003,0)
i1: Removing PWL point (0.000237003,0)
i1: Removing PWL point (0.000238003,0)
i1: Removing PWL point (0.000238003,0)
i1: Removing PWL point (0.000239003,0)
i1: Removing PWL point (0.000239003,0)
i1: Removing PWL point (0.000239003,0)
i1: Removing PWL point (0.000239003,0)
i1: Removing PWL point (0.000240003,0)
i1: Removing PWL point (0.000240003,0)
i1: Removing PWL point (0.000240003,0)
i1: Removing PWL point (0.000241003,0)
i1: Removing PWL point (0.000241003,0)
i1: Removing PWL point (0.000241003,0)
i1: Removing PWL point (0.000241003,0)
i1: Removing PWL point (0.000242003,0)
i1: Removing PWL point (0.000242003,0)
i1: Removing PWL point (0.000243003,0)
i1: Removing PWL point (0.000243003,0)
i1: Removing PWL point (0.000243003,0)
i1: Removing PWL point (0.000243003,0)
i1: Removing PWL point (0.000244002,0)
i1: Removing PWL point (0.000244003,0)
i1: Removing PWL point (0.000244003,0)
i1: Removing PWL point (0.000244003,0)
i1: Removing PWL point (0.000244003,0)
i1: Removing PWL point (0.000244003,0)
i1: Removing PWL point (0.000244003,0)
i1: Removing PWL point (0.000244003,0)
i1: Removing PWL point (0.000244003,0)
i1: Removing PWL point (0.000244003,0)
i1: Removing PWL point (0.000245003,0)
i1: Removing PWL point (0.000246003,0)
i1: Removing PWL point (0.000246003,0)
i1: Removing PWL point (0.000247003,0)
i1: Removing PWL point (0.000247003,0)
i1: Removing PWL point (0.000248003,0)
i1: Removing PWL point (0.000248003,0)
i1: Removing PWL point (0.000248003,0)
i1: Removing PWL point (0.000250003,0)
i1: Removing PWL point (0.000251003,0)
i1: Removing PWL point (0.000251004,0)
i1: Removing PWL point (0.000252003,0)
i1: Removing PWL point (0.000252003,0)
i1: Removing PWL point (0.000252003,0)
i1: Removing PWL point (0.000252003,0)
i1: Removing PWL point (0.000253003,0)
i1: Removing PWL point (0.000253003,0)
i1: Removing PWL point (0.000254003,0)
i1: Removing PWL point (0.000254003,0)
i1: Removing PWL point (0.000255003,0)
i1: Removing PWL point (0.000255003,0)
i1: Removing PWL point (0.000255003,0)
i1: Removing PWL point (0.000255003,0)
i1: Removing PWL point (0.000255003,0)
i1: Removing PWL point (0.000256003,0)
i1: Removing PWL point (0.000256003,0)
i1: Removing PWL point (0.000256003,0)
i1: Removing PWL point (0.000256003,0)
i1: Removing PWL point (0.000257003,0)
i1: Removing PWL point (0.000257003,0)
i1: Removing PWL point (0.000258003,0)
i1: Removing PWL point (0.000258004,0)
i1: Removing PWL point (0.000259002,0)
i1: Removing PWL point (0.000259002,0)
i1: Removing PWL point (0.000259002,0)
i1: Removing PWL point (0.000259002,0)
i1: Removing PWL point (0.000259002,0)
i1: Removing PWL point (0.000259002,0)
i1: Removing PWL point (0.000259002,0)
i1: Removing PWL point (0.000259002,0)
i1: Removing PWL point (0.000259002,0)
i1: Removing PWL point (0.000259002,0)
i1: Removing PWL point (0.000259002,0)
i1: Removing PWL point (0.000259002,0)
i1: Removing PWL point (0.000259002,0)
i1: Removing PWL point (0.000259002,0)
i1: Removing PWL point (0.000259002,0)
i1: Removing PWL point (0.000259002,0)
i1: Removing PWL point (0.000259002,0)
i1: Removing PWL point (0.000259002,0)
i1: Removing PWL point (0.000259002,0)
i1: Removing PWL point (0.000259002,0)
i1: Removing PWL point (0.000259002,0)
i1: Removing PWL point (0.000259002,0)
i1: Removing PWL point (0.000259002,0)
i1: Removing PWL point (0.000259002,0)
i1: Removing PWL point (0.000259002,0)
i1: Removing PWL point (0.000259002,0)
i1: Removing PWL point (0.000259002,0)
i1: Removing PWL point (0.000259002,0)
i1: Removing PWL point (0.000259002,0)
i1: Removing PWL point (0.000259002,0)
i1: Removing PWL point (0.000259002,0)
i1: Removing PWL point (0.000259002,0)
i1: Removing PWL point (0.000259002,0)
i1: Removing PWL point (0.000259002,0)
i1: Removing PWL point (0.000259002,0)
i1: Removing PWL point (0.000259002,0)
i1: Removing PWL point (0.000259002,0)
i1: Removing PWL point (0.000259002,0)
i1: Removing PWL point (0.000260003,0)
i1: Removing PWL point (0.000260003,0)
i1: Removing PWL point (0.000260003,0)
i1: Removing PWL point (0.000260003,0)
i1: Removing PWL point (0.000261003,0)
i1: Removing PWL point (0.000261003,0)
i1: Removing PWL point (0.000261003,0)
i1: Removing PWL point (0.000262003,0)
i1: Removing PWL point (0.000262003,0)
i1: Removing PWL point (0.000262003,0)
i1: Removing PWL point (0.000262003,0)
i1: Removing PWL point (0.000262003,0)
i1: Removing PWL point (0.000263003,0)
i1: Removing PWL point (0.000264003,0)
i1: Removing PWL point (0.000264003,0)
i1: Removing PWL point (0.000265004,0)
i1: Removing PWL point (0.000265004,0)
i1: Removing PWL point (0.000266003,0)
i1: Removing PWL point (0.000266003,0)
i1: Removing PWL point (0.000267003,0)
i1: Removing PWL point (0.000267003,0)
i1: Removing PWL point (0.000267003,0)
i1: Removing PWL point (0.000267003,0)
i1: Removing PWL point (0.000267003,0)
i1: Removing PWL point (0.000267003,0)
i1: Removing PWL point (0.000267003,0)
i1: Removing PWL point (0.000267003,0)
i1: Removing PWL point (0.000268003,0)
i1: Removing PWL point (0.000268003,0)
i1: Removing PWL point (0.000269003,0)
i1: Removing PWL point (0.000270003,0)
i1: Removing PWL point (0.000270003,0)
i1: Removing PWL point (0.000270003,0)
i1: Removing PWL point (0.000270003,0)
i1: Removing PWL point (0.000270003,0)
i1: Removing PWL point (0.000271003,0)
i1: Removing PWL point (0.000271003,0)
i1: Removing PWL point (0.000273003,0)
i1: Removing PWL point (0.000273003,0)
i1: Removing PWL point (0.000273003,0)
i1: Removing PWL point (0.000273003,0)
i1: Removing PWL point (0.000273003,0)
i1: Removing PWL point (0.000274003,0)
i1: Removing PWL point (0.000275003,0)
i1: Removing PWL point (0.000275003,0)
i1: Removing PWL point (0.000276004,0)
i1: Removing PWL point (0.000276004,0)
i1: Removing PWL point (0.000277004,0)
i1: Removing PWL point (0.000278003,0)
i1: Removing PWL point (0.000278003,0)
i1: Removing PWL point (0.000279003,0)
i1: Removing PWL point (0.000280002,0)
i1: Removing PWL point (0.000280002,0)
i1: Removing PWL point (0.000280002,0)
i1: Removing PWL point (0.000280002,0)
i1: Removing PWL point (0.000280002,0)
i1: Removing PWL point (0.000280002,0)
i1: Removing PWL point (0.000280002,0)
i1: Removing PWL point (0.000280002,0)
i1: Removing PWL point (0.000280002,0)
i1: Removing PWL point (0.000280002,0)
i1: Removing PWL point (0.000280002,0)
i1: Removing PWL point (0.000280002,0)
i1: Removing PWL point (0.000280002,0)
i1: Removing PWL point (0.000280003,0)
i1: Removing PWL point (0.000280003,0)
i1: Removing PWL point (0.000280003,0)
i1: Removing PWL point (0.000280003,0)
i1: Removing PWL point (0.000281004,0)
i1: Removing PWL point (0.000282003,0)
i1: Removing PWL point (0.000282003,0)
i1: Removing PWL point (0.000282003,0)
i1: Removing PWL point (0.000282003,0)
i1: Removing PWL point (0.000282003,0)
i1: Removing PWL point (0.000282003,0)
i1: Removing PWL point (0.000284003,0)
i1: Removing PWL point (0.000284003,0)
i1: Removing PWL point (0.000284003,0)
i1: Removing PWL point (0.000285003,0)
i1: Removing PWL point (0.000285003,0)
i1: Removing PWL point (0.000285003,0)
i1: Removing PWL point (0.000285003,0)
i1: Removing PWL point (0.000286003,0)
i1: Removing PWL point (0.000286003,0)
i1: Removing PWL point (0.000289002,0)
i1: Removing PWL point (0.000289002,0)
i1: Removing PWL point (0.000289003,0)
i1: Removing PWL point (0.000289003,0)
i1: Removing PWL point (0.000289003,0)
i1: Removing PWL point (0.000289003,0)
i1: Removing PWL point (0.000289003,0)
i1: Removing PWL point (0.000289003,0)
i1: Removing PWL point (0.000289003,0)
i1: Removing PWL point (0.000289003,0)
i1: Removing PWL point (0.000289003,0)
i1: Removing PWL point (0.000290003,0)
i1: Removing PWL point (0.000290003,0)
i1: Removing PWL point (0.000291004,0)
i1: Removing PWL point (0.000291004,0)
i1: Removing PWL point (0.000292003,0)
i1: Removing PWL point (0.000292003,0)
i1: Removing PWL point (0.000293003,0)
i1: Removing PWL point (0.000293003,0)
i1: Removing PWL point (0.000293003,0)
i1: Removing PWL point (0.000293003,0)
i1: Removing PWL point (0.000294004,0)
i1: Removing PWL point (0.000295003,0)
i1: Removing PWL point (0.000295003,0)
i1: Removing PWL point (0.000295003,0)
i1: Removing PWL point (0.000295003,0)
i1: Removing PWL point (0.000295003,0)
i1: Removing PWL point (0.000295003,0)
i1: Removing PWL point (0.000296003,0)
i1: Removing PWL point (0.000296003,0)
i1: Removing PWL point (0.000297003,0)
i1: Removing PWL point (0.000297003,0)
i1: Removing PWL point (0.000297003,0)
i1: Removing PWL point (0.000297003,0)
i1: Removing PWL point (0.000298003,0)
i1: Removing PWL point (0.000299003,0)
i1: Removing PWL point (0.000299003,0)
i1: Removing PWL point (0.000300003,0)
i1: Removing PWL point (0.000300003,0)
i1: Removing PWL point (0.000301003,0)
i1: Removing PWL point (0.000301003,0)
i1: Removing PWL point (0.000301003,0)
i1: Removing PWL point (0.000303003,0)
i1: Removing PWL point (0.000303003,0)
i1: Removing PWL point (0.000303004,0)
i1: Removing PWL point (0.000304003,0)
i1: Removing PWL point (0.000304003,0)
i1: Removing PWL point (0.000305003,0)
i1: Removing PWL point (0.000306004,0)
i1: Removing PWL point (0.000307003,0)
i1: Removing PWL point (0.000307003,0)
i1: Removing PWL point (0.000307003,0)
i1: Removing PWL point (0.000307003,0)
i1: Removing PWL point (0.000308003,0)
i1: Removing PWL point (0.000308003,0)
i1: Removing PWL point (0.000309003,0)
i1: Removing PWL point (0.000310003,0)
i1: Removing PWL point (0.000310003,0)
i1: Removing PWL point (0.000310003,0)
i1: Removing PWL point (0.000310003,0)
i1: Removing PWL point (0.000310003,0)
i1: Removing PWL point (0.000311003,0)
i1: Removing PWL point (0.000311003,0)
i1: Removing PWL point (0.000312002,0)
i1: Removing PWL point (0.000312002,0)
i1: Removing PWL point (0.000312002,0)
i1: Removing PWL point (0.000312002,0)
i1: Removing PWL point (0.000312002,0)
i1: Removing PWL point (0.000312002,0)
i1: Removing PWL point (0.000312002,0)
i1: Removing PWL point (0.000312003,0)
i1: Removing PWL point (0.000312003,0)
i1: Removing PWL point (0.000312003,0)
i1: Removing PWL point (0.000312003,0)
i1: Removing PWL point (0.000312003,0)
i1: Removing PWL point (0.000312003,0)
i1: Removing PWL point (0.000312003,0)
i1: Removing PWL point (0.000312003,0)
i1: Removing PWL point (0.000313003,0)
i1: Removing PWL point (0.000313004,0)
i1: Removing PWL point (0.000316003,0)
i1: Removing PWL point (0.000316003,0)
i1: Removing PWL point (0.000316003,0)
i1: Removing PWL point (0.000317003,0)
i1: Removing PWL point (0.000317003,0)
i1: Removing PWL point (0.000317003,0)
i1: Removing PWL point (0.000318003,0)
i1: Removing PWL point (0.000319004,0)
i1: Removing PWL point (0.000319004,0)
i1: Removing PWL point (0.000320003,0)
i1: Removing PWL point (0.000320003,0)
i1: Removing PWL point (0.000320003,0)
i1: Removing PWL point (0.000320003,0)
i1: Removing PWL point (0.000320003,0)
i1: Removing PWL point (0.000320003,0)
i1: Removing PWL point (0.000320003,0)
i1: Removing PWL point (0.000321003,0)
i1: Removing PWL point (0.000321003,0)
i1: Removing PWL point (0.000322003,0)
i1: Removing PWL point (0.000323003,0)
i1: Removing PWL point (0.000323003,0)
i1: Removing PWL point (0.000325003,0)
i1: Removing PWL point (0.000325003,0)
i1: Removing PWL point (0.000326003,0)
i1: Removing PWL point (0.000326004,0)
i1: Removing PWL point (0.000327003,0)
i1: Removing PWL point (0.000327003,0)
i1: Removing PWL point (0.000327003,0)
i1: Removing PWL point (0.000327003,0)
i1: Removing PWL point (0.000328003,0)
i1: Removing PWL point (0.000328003,0)
i1: Removing PWL point (0.000328003,0)
i1: Removing PWL point (0.000328003,0)
i1: Removing PWL point (0.000329003,0)
i1: Removing PWL point (0.000329003,0)
i1: Removing PWL point (0.000329003,0)
i1: Removing PWL point (0.000330003,0)
i1: Removing PWL point (0.000330003,0)
i1: Removing PWL point (0.000331003,0)
i1: Removing PWL point (0.000331003,0)
i1: Removing PWL point (0.000331003,0)
i1: Removing PWL point (0.000331003,0)
i1: Removing PWL point (0.000331003,0)
i1: Removing PWL point (0.000332003,0)
i1: Removing PWL point (0.000332003,0)
i1: Removing PWL point (0.000333003,0)
i1: Removing PWL point (0.000333003,0)
i1: Removing PWL point (0.000334003,0)
i1: Removing PWL point (0.000334003,0)
i1: Removing PWL point (0.000334003,0)
i1: Removing PWL point (0.000335002,0)
i1: Removing PWL point (0.000335002,0)
i1: Removing PWL point (0.000335002,0)
i1: Removing PWL point (0.000335002,0)
i1: Removing PWL point (0.000335002,0)
i1: Removing PWL point (0.000335002,0)
i1: Removing PWL point (0.000335002,0)
i1: Removing PWL point (0.000335002,0)
i1: Removing PWL point (0.000335002,0)
i1: Removing PWL point (0.000335002,0)
i1: Removing PWL point (0.000335002,0)
i1: Removing PWL point (0.000335002,0)
i1: Removing PWL point (0.000335002,0)
i1: Removing PWL point (0.000335002,0)
i1: Removing PWL point (0.000335002,0)
i1: Removing PWL point (0.000335002,0)
i1: Removing PWL point (0.000335002,0)
i1: Removing PWL point (0.000335002,0)
i1: Removing PWL point (0.000335002,0)
i1: Removing PWL point (0.000335002,0)
i1: Removing PWL point (0.000335002,0)
i1: Removing PWL point (0.000335002,0)
i1: Removing PWL point (0.000335002,0)
i1: Removing PWL point (0.000335002,0)
i1: Removing PWL point (0.000335002,0)
i1: Removing PWL point (0.000335002,0)
i1: Removing PWL point (0.000335002,0)
i1: Removing PWL point (0.000335002,0)
i1: Removing PWL point (0.000335002,0)
i1: Removing PWL point (0.000335002,0)
i1: Removing PWL point (0.000335002,0)
i1: Removing PWL point (0.000335002,0)
i1: Removing PWL point (0.000335002,0)
i1: Removing PWL point (0.000335002,0)
i1: Removing PWL point (0.000335002,0)
i1: Removing PWL point (0.000335002,0)
i1: Removing PWL point (0.000335002,0)
i1: Removing PWL point (0.000335002,0)
i1: Removing PWL point (0.000336003,0)
i1: Removing PWL point (0.000336003,0)
i1: Removing PWL point (0.000337004,0)
i1: Removing PWL point (0.000338003,0)
i1: Removing PWL point (0.000338003,0)
i1: Removing PWL point (0.000339003,0)
i1: Removing PWL point (0.000339003,0)
i1: Removing PWL point (0.000340003,0)
i1: Removing PWL point (0.000340003,0)
i1: Removing PWL point (0.000340003,0)
i1: Removing PWL point (0.000342003,0)
i1: Removing PWL point (0.000342003,0)
i1: Removing PWL point (0.000343003,0)
i1: Removing PWL point (0.000343003,0)
i1: Removing PWL point (0.000343003,0)
i1: Removing PWL point (0.000344003,0)
i1: Removing PWL point (0.000344003,0)
i1: Removing PWL point (0.000344003,0)
i1: Removing PWL point (0.000345002,0)
i1: Removing PWL point (0.000345002,0)
i1: Removing PWL point (0.000345002,0)
i1: Removing PWL point (0.000345002,0)
i1: Removing PWL point (0.000345002,0)
i1: Removing PWL point (0.000345002,0)
i1: Removing PWL point (0.000345002,0)
i1: Removing PWL point (0.000345002,0)
i1: Removing PWL point (0.000345002,0)
i1: Removing PWL point (0.000345002,0)
i1: Removing PWL point (0.000345002,0)
i1: Removing PWL point (0.000345002,0)
i1: Removing PWL point (0.000345002,0)
i1: Removing PWL point (0.000345002,0)
i1: Removing PWL point (0.000345003,0)
i1: Removing PWL point (0.000345003,0)
i1: Removing PWL point (0.000345003,0)
i1: Removing PWL point (0.000345003,0)
i1: Removing PWL point (0.000345003,0)
i1: Removing PWL point (0.000345003,0)
i1: Removing PWL point (0.000345003,0)
i1: Removing PWL point (0.000346003,0)
i1: Removing PWL point (0.000347003,0)
i1: Removing PWL point (0.000347003,0)
i1: Removing PWL point (0.000347003,0)
i1: Removing PWL point (0.000347003,0)
i1: Removing PWL point (0.000347003,0)
i1: Removing PWL point (0.000347003,0)
i1: Removing PWL point (0.000347003,0)
i1: Removing PWL point (0.000348003,0)
i1: Removing PWL point (0.000348003,0)
i1: Removing PWL point (0.000350003,0)
i1: Removing PWL point (0.000350003,0)
i1: Removing PWL point (0.000350003,0)
i1: Removing PWL point (0.000350003,0)
i1: Removing PWL point (0.000351003,0)
i1: Removing PWL point (0.000352002,0)
i1: Removing PWL point (0.000352002,0)
i1: Removing PWL point (0.000352002,0)
i1: Removing PWL point (0.000352002,0)
i1: Removing PWL point (0.000352002,0)
i1: Removing PWL point (0.000352002,0)
i1: Removing PWL point (0.000352002,0)
i1: Removing PWL point (0.000352002,0)
i1: Removing PWL point (0.000352002,0)
i1: Removing PWL point (0.000352002,0)
i1: Removing PWL point (0.000352002,0)
i1: Removing PWL point (0.000352002,0)
i1: Removing PWL point (0.000352002,0)
i1: Removing PWL point (0.000352002,0)
i1: Removing PWL point (0.000352002,0)
i1: Removing PWL point (0.000352002,0)
i1: Removing PWL point (0.000352002,0)
i1: Removing PWL point (0.000352003,0)
i1: Removing PWL point (0.000352003,0)
i1: Removing PWL point (0.000352003,0)
i1: Removing PWL point (0.000352003,0)
i1: Removing PWL point (0.000353003,0)
i1: Removing PWL point (0.000353003,0)
i1: Removing PWL point (0.000353003,0)
i1: Removing PWL point (0.000353003,0)
i1: Removing PWL point (0.000353003,0)
i1: Removing PWL point (0.000354004,0)
i1: Removing PWL point (0.000355003,0)
i1: Removing PWL point (0.000355003,0)
i1: Removing PWL point (0.000355003,0)
i1: Removing PWL point (0.000356003,0)
i1: Removing PWL point (0.000356003,0)
i1: Removing PWL point (0.000356003,0)
i1: Removing PWL point (0.000357003,0)
i1: Removing PWL point (0.000357003,0)
i1: Removing PWL point (0.000358003,0)
i1: Removing PWL point (0.000358003,0)
i1: Removing PWL point (0.000359003,0)
i1: Removing PWL point (0.000359004,0)
i1: Removing PWL point (0.000360002,0)
i1: Removing PWL point (0.000360003,0)
i1: Removing PWL point (0.000360003,0)
i1: Removing PWL point (0.000360003,0)
i1: Removing PWL point (0.000361003,0)
i1: Removing PWL point (0.000361003,0)
i1: Removing PWL point (0.000361003,0)
i1: Removing PWL point (0.000361003,0)
i1: Removing PWL point (0.000361003,0)
i1: Removing PWL point (0.000362003,0)
i1: Removing PWL point (0.000362003,0)
i1: Removing PWL point (0.000363003,0)
i1: Removing PWL point (0.000364003,0)
i1: Removing PWL point (0.000364003,0)
i1: Removing PWL point (0.000364003,0)
i1: Removing PWL point (0.000364003,0)
i1: Removing PWL point (0.000365003,0)
i1: Removing PWL point (0.000366002,0)
i1: Removing PWL point (0.000366003,0)
i1: Removing PWL point (0.000366003,0)
i1: Removing PWL point (0.000366003,0)
i1: Removing PWL point (0.000366003,0)
i1: Removing PWL point (0.000366003,0)
i1: Removing PWL point (0.000366003,0)
i1: Removing PWL point (0.000366003,0)
i1: Removing PWL point (0.000366003,0)
i1: Removing PWL point (0.000366003,0)
i1: Removing PWL point (0.000366003,0)
i1: Removing PWL point (0.000367003,0)
i1: Removing PWL point (0.000367003,0)
i1: Removing PWL point (0.000367003,0)
i1: Removing PWL point (0.000367003,0)
i1: Removing PWL point (0.000368003,0)
i1: Removing PWL point (0.000368003,0)
i1: Removing PWL point (0.000369003,0)
i1: Removing PWL point (0.000369003,0)
i1: Removing PWL point (0.000369003,0)
i1: Removing PWL point (0.000369003,0)
i1: Removing PWL point (0.000369003,0)
i1: Removing PWL point (0.000370003,0)
i1: Removing PWL point (0.000370003,0)
i1: Removing PWL point (0.000371003,0)
i1: Removing PWL point (0.000371003,0)
i1: Removing PWL point (0.000372004,0)
i1: Removing PWL point (0.000373003,0)
i1: Removing PWL point (0.000374003,0)
i1: Removing PWL point (0.000374003,0)
i1: Removing PWL point (0.000374003,0)
i1: Removing PWL point (0.000374003,0)
i1: Removing PWL point (0.000375003,0)
i1: Removing PWL point (0.000375003,0)
i1: Removing PWL point (0.000375003,0)
i1: Removing PWL point (0.000375003,0)
i1: Removing PWL point (0.000375003,0)
i1: Removing PWL point (0.000375003,0)
i1: Removing PWL point (0.000375003,0)
i1: Removing PWL point (0.000375003,0)
i1: Removing PWL point (0.000376003,0)
i1: Removing PWL point (0.000377003,0)
i1: Removing PWL point (0.000377003,0)
i1: Removing PWL point (0.000378003,0)
i1: Removing PWL point (0.000378003,0)
i1: Removing PWL point (0.000379004,0)
i1: Removing PWL point (0.000379004,0)
i1: Removing PWL point (0.000380003,0)
i1: Removing PWL point (0.000380003,0)
i1: Removing PWL point (0.000380003,0)
i1: Removing PWL point (0.000381003,0)
i1: Removing PWL point (0.000381003,0)
i1: Removing PWL point (0.000381003,0)
i1: Removing PWL point (0.000382003,0)
i1: Removing PWL point (0.000382003,0)
i1: Removing PWL point (0.000382003,0)
i1: Removing PWL point (0.000382003,0)
i1: Removing PWL point (0.000382003,0)
i1: Removing PWL point (0.000382003,0)
i1: Removing PWL point (0.000382003,0)
i1: Removing PWL point (0.000385003,0)
i1: Removing PWL point (0.000385003,0)
i1: Removing PWL point (0.000386003,0)
i1: Removing PWL point (0.000386003,0)
i1: Removing PWL point (0.000387003,0)
i1: Removing PWL point (0.000388003,0)
i1: Removing PWL point (0.000391004,0)
i1: Removing PWL point (0.000391004,0)
i1: Removing PWL point (0.000392003,0)
i1: Removing PWL point (0.000392003,0)
i1: Removing PWL point (0.000392003,0)
i1: Removing PWL point (0.000392003,0)
i1: Removing PWL point (0.000392003,0)
i1: Removing PWL point (0.000392003,0)
i1: Removing PWL point (0.000393003,0)
i1: Removing PWL point (0.000394003,0)
i1: Removing PWL point (0.000394003,0)
i1: Removing PWL point (0.000394003,0)
i1: Removing PWL point (0.000395003,0)
i1: Removing PWL point (0.000395003,0)
i1: Removing PWL point (0.000395003,0)
i1: Removing PWL point (0.000396003,0)
i1: Removing PWL point (0.000397003,0)
i1: Removing PWL point (0.000397003,0)
i1: Removing PWL point (0.000397003,0)
i1: Removing PWL point (0.000397003,0)
i1: Removing PWL point (0.000397003,0)
i1: Removing PWL point (0.000397003,0)
i1: Removing PWL point (0.000397003,0)
i1: Removing PWL point (0.000400003,0)
i1: Removing PWL point (0.000400004,0)
i1: Removing PWL point (0.000402003,0)
i1: Removing PWL point (0.000402004,0)
i1: Removing PWL point (0.000403003,0)
i1: Removing PWL point (0.000403003,0)
i1: Removing PWL point (0.000404003,0)
i1: Removing PWL point (0.000404004,0)
i1: Removing PWL point (0.000406003,0)
i1: Removing PWL point (0.000406003,0)
i1: Removing PWL point (0.000406003,0)
i1: Removing PWL point (0.000407003,0)
i1: Removing PWL point (0.000407003,0)
i1: Removing PWL point (0.000408004,0)
i1: Removing PWL point (0.000409003,0)
i1: Removing PWL point (0.000409003,0)
i1: Removing PWL point (0.000409003,0)
i1: Removing PWL point (0.000409003,0)
i1: Removing PWL point (0.000409003,0)
i1: Removing PWL point (0.000409003,0)
i1: Removing PWL point (0.000410003,0)
i1: Removing PWL point (0.000410003,0)
i1: Removing PWL point (0.000411003,0)
i1: Removing PWL point (0.000411003,0)
i1: Removing PWL point (0.000411003,0)
i1: Removing PWL point (0.000411003,0)
i1: Removing PWL point (0.000411003,0)
i1: Removing PWL point (0.000411003,0)
i1: Removing PWL point (0.000411003,0)
i1: Removing PWL point (0.000411003,0)
i1: Removing PWL point (0.000411003,0)
i1: Removing PWL point (0.000412003,0)
i1: Removing PWL point (0.000412003,0)
i1: Removing PWL point (0.000412003,0)
i1: Removing PWL point (0.000412003,0)
i1: Removing PWL point (0.000413002,0)
i1: Removing PWL point (0.000413002,0)
i1: Removing PWL point (0.000413002,0)
i1: Removing PWL point (0.000413003,0)
i1: Removing PWL point (0.000413003,0)
i1: Removing PWL point (0.000413003,0)
i1: Removing PWL point (0.000413003,0)
i1: Removing PWL point (0.000413003,0)
i1: Removing PWL point (0.000413003,0)
i1: Removing PWL point (0.000414003,0)
i1: Removing PWL point (0.000414003,0)
i1: Removing PWL point (0.000414003,0)
i1: Removing PWL point (0.000415003,0)
i1: Removing PWL point (0.000415003,0)
i1: Removing PWL point (0.000415003,0)
i1: Removing PWL point (0.000415003,0)
i1: Removing PWL point (0.000416003,0)
i1: Removing PWL point (0.000416003,0)
i1: Removing PWL point (0.000416003,0)
i1: Removing PWL point (0.000417003,0)
i1: Removing PWL point (0.000418003,0)
i1: Removing PWL point (0.000418003,0)
i1: Removing PWL point (0.000419003,0)
i1: Removing PWL point (0.000419003,0)
i1: Removing PWL point (0.000419003,0)
i1: Removing PWL point (0.000421003,0)
i1: Removing PWL point (0.000421003,0)
i1: Removing PWL point (0.000422003,0)
i1: Removing PWL point (0.000422003,0)
i1: Removing PWL point (0.000422003,0)
i1: Removing PWL point (0.000423003,0)
i1: Removing PWL point (0.000425002,0)
i1: Removing PWL point (0.000425002,0)
i1: Removing PWL point (0.000425002,0)
i1: Removing PWL point (0.000425002,0)
i1: Removing PWL point (0.000425002,0)
i1: Removing PWL point (0.000425002,0)
i1: Removing PWL point (0.000425002,0)
i1: Removing PWL point (0.000425002,0)
i1: Removing PWL point (0.000425002,0)
i1: Removing PWL point (0.000425002,0)
i1: Removing PWL point (0.000425002,0)
i1: Removing PWL point (0.000425002,0)
i1: Removing PWL point (0.000425002,0)
i1: Removing PWL point (0.000425002,0)
i1: Removing PWL point (0.000425002,0)
i1: Removing PWL point (0.000425002,0)
i1: Removing PWL point (0.000425002,0)
i1: Removing PWL point (0.000425002,0)
i1: Removing PWL point (0.000425002,0)
i1: Removing PWL point (0.000425002,0)
i1: Removing PWL point (0.000425002,0)
i1: Removing PWL point (0.000425002,0)
i1: Removing PWL point (0.000425002,0)
i1: Removing PWL point (0.000425002,0)
i1: Removing PWL point (0.000425002,0)
i1: Removing PWL point (0.000425002,0)
i1: Removing PWL point (0.000425002,0)
i1: Removing PWL point (0.000425002,0)
i1: Removing PWL point (0.000425002,0)
i1: Removing PWL point (0.000425002,0)
i1: Removing PWL point (0.000425002,0)
i1: Removing PWL point (0.000425002,0)
i1: Removing PWL point (0.000425002,0)
i1: Removing PWL point (0.000425002,0)
i1: Removing PWL point (0.000425002,0)
i1: Removing PWL point (0.000425002,0)
i1: Removing PWL point (0.000425002,0)
i1: Removing PWL point (0.000425002,0)
i1: Removing PWL point (0.000425002,0)
i1: Removing PWL point (0.000425002,0)
i1: Removing PWL point (0.000425002,0)
i1: Removing PWL point (0.000425002,0)
i1: Removing PWL point (0.000425002,0)
i1: Removing PWL point (0.000425002,0)
i1: Removing PWL point (0.000425002,0)
i1: Removing PWL point (0.000425002,0)
i1: Removing PWL point (0.000425002,0)
i1: Removing PWL point (0.000425002,0)
i1: Removing PWL point (0.000426003,0)
i1: Removing PWL point (0.000428003,0)
i1: Removing PWL point (0.000428003,0)
i1: Removing PWL point (0.000428003,0)
i1: Removing PWL point (0.000429003,0)
i1: Removing PWL point (0.000429003,0)
i1: Removing PWL point (0.000430003,0)
i1: Removing PWL point (0.000431003,0)
i1: Removing PWL point (0.000432002,0)
i1: Removing PWL point (0.000432002,0)
i1: Removing PWL point (0.000432002,0)
i1: Removing PWL point (0.000432002,0)
i1: Removing PWL point (0.000432002,0)
i1: Removing PWL point (0.000432002,0)
i1: Removing PWL point (0.000432002,0)
i1: Removing PWL point (0.000432002,0)
i1: Removing PWL point (0.000432002,0)
i1: Removing PWL point (0.000432003,0)
i1: Removing PWL point (0.000432003,0)
i1: Removing PWL point (0.000432003,0)
i1: Removing PWL point (0.000432003,0)
i1: Removing PWL point (0.000432003,0)
i1: Removing PWL point (0.000432003,0)
i1: Removing PWL point (0.000432003,0)
i1: Removing PWL point (0.000433003,0)
i1: Removing PWL point (0.000433003,0)
i1: Removing PWL point (0.000433003,0)
i1: Removing PWL point (0.000433003,0)
i1: Removing PWL point (0.000433003,0)
i1: Removing PWL point (0.000433003,0)
i1: Removing PWL point (0.000433003,0)
i1: Removing PWL point (0.000433003,0)
i1: Removing PWL point (0.000433003,0)
i1: Removing PWL point (0.000433003,0)
i1: Removing PWL point (0.000435003,0)
i1: Removing PWL point (0.000435003,0)
i1: Removing PWL point (0.000435003,0)
i1: Removing PWL point (0.000437003,0)
i1: Removing PWL point (0.000437003,0)
i1: Removing PWL point (0.000440003,0)
i1: Removing PWL point (0.000440003,0)
i1: Removing PWL point (0.000440003,0)
i1: Removing PWL point (0.000440003,0)
i1: Removing PWL point (0.000441003,0)
i1: Removing PWL point (0.000441003,0)
i1: Removing PWL point (0.000441003,0)
i1: Removing PWL point (0.000442003,0)
i1: Removing PWL point (0.000442003,0)
i1: Removing PWL point (0.000443003,0)
i1: Removing PWL point (0.000444003,0)
i1: Removing PWL point (0.000444003,0)
i1: Removing PWL point (0.000444003,0)
i1: Removing PWL point (0.000444003,0)
i1: Removing PWL point (0.000446003,0)
i1: Removing PWL point (0.000446003,0)
i1: Removing PWL point (0.000447003,0)
i1: Removing PWL point (0.000447003,0)
i1: Removing PWL point (0.000448003,0)
i1: Removing PWL point (0.000448003,0)
i1: Removing PWL point (0.000448003,0)
i1: Removing PWL point (0.000449003,0)
i1: Removing PWL point (0.000450003,0)
i1: Removing PWL point (0.000450003,0)
i1: Removing PWL point (0.000450003,0)
i1: Removing PWL point (0.000451003,0)
i1: Removing PWL point (0.000452003,0)
i1: Removing PWL point (0.000452003,0)
i1: Removing PWL point (0.000453002,0)
i1: Removing PWL point (0.000453002,0)
i1: Removing PWL point (0.000453002,0)
i1: Removing PWL point (0.000453002,0)
i1: Removing PWL point (0.000453002,0)
i1: Removing PWL point (0.000453002,0)
i1: Removing PWL point (0.000453002,0)
i1: Removing PWL point (0.000453002,0)
i1: Removing PWL point (0.000453002,0)
i1: Removing PWL point (0.000453002,0)
i1: Removing PWL point (0.000453002,0)
i1: Removing PWL point (0.000453002,0)
i1: Removing PWL point (0.000453002,0)
i1: Removing PWL point (0.000453002,0)
i1: Removing PWL point (0.000453002,0)
i1: Removing PWL point (0.000453002,0)
i1: Removing PWL point (0.000453002,0)
i1: Removing PWL point (0.000453002,0)
i1: Removing PWL point (0.000453002,0)
i1: Removing PWL point (0.000453002,0)
i1: Removing PWL point (0.000453002,0)
i1: Removing PWL point (0.000453002,0)
i1: Removing PWL point (0.000453002,0)
i1: Removing PWL point (0.000453002,0)
i1: Removing PWL point (0.000453003,0)
i1: Removing PWL point (0.000453003,0)
i1: Removing PWL point (0.000453003,0)
i1: Removing PWL point (0.000453003,0)
i1: Removing PWL point (0.000454003,0)
i1: Removing PWL point (0.000454003,0)
i1: Removing PWL point (0.000454003,0)
i1: Removing PWL point (0.000456003,0)
i1: Removing PWL point (0.000457002,0)
i1: Removing PWL point (0.000457002,0)
i1: Removing PWL point (0.000457002,0)
i1: Removing PWL point (0.000457002,0)
i1: Removing PWL point (0.000457003,0)
i1: Removing PWL point (0.000457003,0)
i1: Removing PWL point (0.000457003,0)
i1: Removing PWL point (0.000457003,0)
i1: Removing PWL point (0.000457003,0)
i1: Removing PWL point (0.000457003,0)
i1: Removing PWL point (0.000457003,0)
i1: Removing PWL point (0.000457003,0)
i1: Removing PWL point (0.000457003,0)
i1: Removing PWL point (0.000457003,0)
i1: Removing PWL point (0.000457003,0)
i1: Removing PWL point (0.000457003,0)
i1: Removing PWL point (0.000457003,0)
i1: Removing PWL point (0.000457003,0)
i1: Removing PWL point (0.000457003,0)
i1: Removing PWL point (0.000457003,0)
i1: Removing PWL point (0.000458003,0)
i1: Removing PWL point (0.000459003,0)
i1: Removing PWL point (0.000459003,0)
i1: Removing PWL point (0.000459003,0)
i1: Removing PWL point (0.000460003,0)
i1: Removing PWL point (0.000460003,0)
i1: Removing PWL point (0.000461003,0)
i1: Removing PWL point (0.000462003,0)
i1: Removing PWL point (0.000462003,0)
i1: Removing PWL point (0.000462003,0)
i1: Removing PWL point (0.000463002,0)
i1: Removing PWL point (0.000463002,0)
i1: Removing PWL point (0.000463002,0)
i1: Removing PWL point (0.000463003,0)
i1: Removing PWL point (0.000463003,0)
i1: Removing PWL point (0.000463003,0)
i1: Removing PWL point (0.000463003,0)
i1: Removing PWL point (0.000463003,0)
i1: Removing PWL point (0.000463003,0)
i1: Removing PWL point (0.000463003,0)
i1: Removing PWL point (0.000463003,0)
i1: Removing PWL point (0.000463003,0)
i1: Removing PWL point (0.000463003,0)
i1: Removing PWL point (0.000464003,0)
i1: Removing PWL point (0.000464003,0)
i1: Removing PWL point (0.000465003,0)
i1: Removing PWL point (0.000465003,0)
i1: Removing PWL point (0.000465003,0)
i1: Removing PWL point (0.000466003,0)
i1: Removing PWL point (0.000466003,0)
i1: Removing PWL point (0.000467003,0)
i1: Removing PWL point (0.000467003,0)
i1: Removing PWL point (0.000467003,0)
i1: Removing PWL point (0.000467003,0)
i1: Removing PWL point (0.000468003,0)
i1: Removing PWL point (0.000468003,0)
i1: Removing PWL point (0.000468003,0)
i1: Removing PWL point (0.000468003,0)
i1: Removing PWL point (0.000469003,0)
i1: Removing PWL point (0.000470003,0)
i1: Removing PWL point (0.000470003,0)
i1: Removing PWL point (0.000471003,0)
i1: Removing PWL point (0.000471003,0)
i1: Removing PWL point (0.000471003,0)
i1: Removing PWL point (0.000472004,0)
i1: Removing PWL point (0.000472004,0)
i1: Removing PWL point (0.000474003,0)
i1: Removing PWL point (0.000474003,0)
i1: Removing PWL point (0.000475003,0)
i1: Removing PWL point (0.000475003,0)
i1: Removing PWL point (0.000476003,0)
i1: Removing PWL point (0.000476003,0)
i1: Removing PWL point (0.000476003,0)
i1: Removing PWL point (0.000477003,0)
i1: Removing PWL point (0.000477003,0)
i1: Removing PWL point (0.000477004,0)
i1: Removing PWL point (0.000478003,0)
i1: Removing PWL point (0.000478003,0)
i1: Removing PWL point (0.000479003,0)
i1: Removing PWL point (0.000479003,0)
i1: Removing PWL point (0.000479003,0)
i1: Removing PWL point (0.000479003,0)
i1: Removing PWL point (0.000479003,0)
i1: Removing PWL point (0.000479003,0)
i1: Removing PWL point (0.000479003,0)
i1: Removing PWL point (0.000479003,0)
i1: Removing PWL point (0.000479003,0)
i1: Removing PWL point (0.000479003,0)
i1: Removing PWL point (0.000479003,0)
i1: Removing PWL point (0.000481003,0)
i1: Removing PWL point (0.000481003,0)
i1: Removing PWL point (0.000481003,0)
i1: Removing PWL point (0.000482004,0)
i1: Removing PWL point (0.000483003,0)
i1: Removing PWL point (0.000483003,0)
i1: Removing PWL point (0.000483003,0)
i1: Removing PWL point (0.000484004,0)
i1: Removing PWL point (0.000485003,0)
i1: Removing PWL point (0.000486003,0)
i1: Removing PWL point (0.000486003,0)
i1: Removing PWL point (0.000486003,0)
i1: Removing PWL point (0.000486003,0)
i1: Removing PWL point (0.000486003,0)
i1: Removing PWL point (0.000487003,0)
i1: Removing PWL point (0.000487003,0)
i1: Removing PWL point (0.000487003,0)
i1: Removing PWL point (0.000487003,0)
i1: Removing PWL point (0.000487003,0)
i1: Removing PWL point (0.000487003,0)
i1: Removing PWL point (0.000487003,0)
i1: Removing PWL point (0.000487003,0)
i1: Removing PWL point (0.000487003,0)
i1: Removing PWL point (0.000487003,0)
i1: Removing PWL point (0.000487003,0)
i1: Removing PWL point (0.000487003,0)
i1: Removing PWL point (0.000488003,0)
i1: Removing PWL point (0.000488003,0)
i1: Removing PWL point (0.000489003,0)
i1: Removing PWL point (0.000489003,0)
i1: Removing PWL point (0.000490003,0)
i1: Removing PWL point (0.000490003,0)
i1: Removing PWL point (0.000490003,0)
i1: Removing PWL point (0.000490003,0)
i1: Removing PWL point (0.000490003,0)
i1: Removing PWL point (0.000491002,0)
i1: Removing PWL point (0.000491002,0)
i1: Removing PWL point (0.000491002,0)
i1: Removing PWL point (0.000491003,0)
i1: Removing PWL point (0.000491003,0)
i1: Removing PWL point (0.000491003,0)
i1: Removing PWL point (0.000491003,0)
i1: Removing PWL point (0.000491003,0)
i1: Removing PWL point (0.000491003,0)
i1: Removing PWL point (0.000491003,0)
i1: Removing PWL point (0.000491003,0)
i1: Removing PWL point (0.000491003,0)
i1: Removing PWL point (0.000491003,0)
i1: Removing PWL point (0.000492003,0)
i1: Removing PWL point (0.000492003,0)
i1: Removing PWL point (0.000492003,0)
i1: Removing PWL point (0.000492003,0)
i1: Removing PWL point (0.000492003,0)
i1: Removing PWL point (0.000493003,0)
i1: Removing PWL point (0.000493003,0)
i1: Removing PWL point (0.000493003,0)
i1: Removing PWL point (0.000493003,0)
i1: Removing PWL point (0.000494003,0)
i1: Removing PWL point (0.000494003,0)
i1: Removing PWL point (0.000496003,0)
i1: Removing PWL point (0.000496003,0)
i1: Removing PWL point (0.000497003,0)
i1: Removing PWL point (0.000497003,0)
i1: Removing PWL point (0.000498003,0)
i1: Removing PWL point (0.000498003,0)
i1: Removing PWL point (0.000499003,0)
i1: Removing PWL point (0.000499003,0)
i1: Removing PWL point (0.000499003,0)
i1: Removing PWL point (0.000499003,0)
i1: Removing PWL point (0.000499003,0)
i1: Removing PWL point (0.000499003,0)
i1: Removing PWL point (0.000499003,0)
i1: Removing PWL point (0.000499003,0)
i1: Removing PWL point (0.000499003,0)
i1: Removing PWL point (0.000499003,0)
i1: Removing PWL point (0.000499003,0)
i1: Removing PWL point (0.000499003,0)
i1: Removing PWL point (0.000500003,0)
i1: Removing PWL point (0.000500003,0)
i1: Removing PWL point (0.000500003,0)
i1: Removing PWL point (0.000500003,0)
i1: Removing PWL point (0.000500003,0)
i1: Removing PWL point (0.000501003,0)
i1: Removing PWL point (0.000501003,0)
i1: Removing PWL point (0.000502003,0)
i1: Removing PWL point (0.000502003,0)
i1: Removing PWL point (0.000503003,0)
i1: Removing PWL point (0.000503003,0)
i1: Removing PWL point (0.000504003,0)
i1: Removing PWL point (0.000505003,0)
i1: Removing PWL point (0.000505003,0)
i1: Removing PWL point (0.000505004,0)
i1: Removing PWL point (0.000506003,0)
i1: Removing PWL point (0.000509003,0)
i1: Removing PWL point (0.000509003,0)
i1: Removing PWL point (0.000509003,0)
i1: Removing PWL point (0.000510003,0)
i1: Removing PWL point (0.000511003,0)
i1: Removing PWL point (0.000511003,0)
i1: Removing PWL point (0.000511003,0)
i1: Removing PWL point (0.000512003,0)
i1: Removing PWL point (0.000513003,0)
i1: Removing PWL point (0.000513003,0)
i1: Removing PWL point (0.000513003,0)
i1: Removing PWL point (0.000514003,0)
i1: Removing PWL point (0.000514003,0)
i1: Removing PWL point (0.000515003,0)
i1: Removing PWL point (0.000516002,0)
i1: Removing PWL point (0.000516003,0)
i1: Removing PWL point (0.000516003,0)
i1: Removing PWL point (0.000516003,0)
i1: Removing PWL point (0.000516003,0)
i1: Removing PWL point (0.000516003,0)
i1: Removing PWL point (0.000516003,0)
i1: Removing PWL point (0.000516003,0)
i1: Removing PWL point (0.000516003,0)
i1: Removing PWL point (0.000516003,0)
i1: Removing PWL point (0.000516003,0)
i1: Removing PWL point (0.000516003,0)
i1: Removing PWL point (0.000517003,0)
i1: Removing PWL point (0.000517003,0)
i1: Removing PWL point (0.000517003,0)
i1: Removing PWL point (0.000518003,0)
i1: Removing PWL point (0.000518003,0)
i1: Removing PWL point (0.000518003,0)
i1: Removing PWL point (0.000518003,0)
i1: Removing PWL point (0.000518003,0)
i1: Removing PWL point (0.000520003,0)
i1: Removing PWL point (0.000520003,0)
i1: Removing PWL point (0.000522003,0)
i1: Removing PWL point (0.000522003,0)
i1: Removing PWL point (0.000522003,0)
i1: Removing PWL point (0.000523003,0)
i1: Removing PWL point (0.000524003,0)
i1: Removing PWL point (0.000524003,0)
i1: Removing PWL point (0.000524003,0)
i1: Removing PWL point (0.000524003,0)
i1: Removing PWL point (0.000524003,0)
i1: Removing PWL point (0.000525003,0)
i1: Removing PWL point (0.000525003,0)
i1: Removing PWL point (0.000525003,0)
i1: Removing PWL point (0.000525003,0)
i1: Removing PWL point (0.000525003,0)
i1: Removing PWL point (0.000525003,0)
i1: Removing PWL point (0.000527004,0)
i1: Removing PWL point (0.000527004,0)
i1: Removing PWL point (0.000528003,0)
i1: Removing PWL point (0.000528003,0)
i1: Removing PWL point (0.000529003,0)
i1: Removing PWL point (0.000529003,0)
i1: Removing PWL point (0.000530003,0)
i1: Removing PWL point (0.000530003,0)
i1: Removing PWL point (0.000530003,0)
i1: Removing PWL point (0.000531003,0)
i1: Removing PWL point (0.000531003,0)
i1: Removing PWL point (0.000531003,0)
i1: Removing PWL point (0.000532004,0)
i1: Removing PWL point (0.000532004,0)
i1: Removing PWL point (0.000533002,0)
i1: Removing PWL point (0.000533002,0)
i1: Removing PWL point (0.000533002,0)
i1: Removing PWL point (0.000533002,0)
i1: Removing PWL point (0.000533002,0)
i1: Removing PWL point (0.000533002,0)
i1: Removing PWL point (0.000533002,0)
i1: Removing PWL point (0.000533002,0)
i1: Removing PWL point (0.000533002,0)
i1: Removing PWL point (0.000533002,0)
i1: Removing PWL point (0.000533003,0)
i1: Removing PWL point (0.000533003,0)
i1: Removing PWL point (0.000533003,0)
i1: Removing PWL point (0.000533003,0)
i1: Removing PWL point (0.000533003,0)
i1: Removing PWL point (0.000533003,0)
i1: Removing PWL point (0.000533003,0)
i1: Removing PWL point (0.000533003,0)
i1: Removing PWL point (0.000534003,0)
i1: Removing PWL point (0.000534003,0)
i1: Removing PWL point (0.000535003,0)
i1: Removing PWL point (0.000535003,0)
i1: Removing PWL point (0.000535003,0)
i1: Removing PWL point (0.000536002,0)
i1: Removing PWL point (0.000536002,0)
i1: Removing PWL point (0.000536002,0)
i1: Removing PWL point (0.000536002,0)
i1: Removing PWL point (0.000536003,0)
i1: Removing PWL point (0.000536003,0)
i1: Removing PWL point (0.000536003,0)
i1: Removing PWL point (0.000536003,0)
i1: Removing PWL point (0.000536003,0)
i1: Removing PWL point (0.000537003,0)
i1: Removing PWL point (0.000538003,0)
i1: Removing PWL point (0.000538003,0)
i1: Removing PWL point (0.000539003,0)
i1: Removing PWL point (0.000539003,0)
i1: Removing PWL point (0.000539003,0)
i1: Removing PWL point (0.000540003,0)
i1: Removing PWL point (0.000540003,0)
i1: Removing PWL point (0.000540003,0)
i1: Removing PWL point (0.000540003,0)
i1: Removing PWL point (0.000541003,0)
i1: Removing PWL point (0.000541003,0)
i1: Removing PWL point (0.000541003,0)
i1: Removing PWL point (0.000542003,0)
i1: Removing PWL point (0.000543003,0)
i1: Removing PWL point (0.000543003,0)
i1: Removing PWL point (0.000544003,0)
i1: Removing PWL point (0.000544003,0)
i1: Removing PWL point (0.000544003,0)
i1: Removing PWL point (0.000545003,0)
i1: Removing PWL point (0.000545003,0)
i1: Removing PWL point (0.000545003,0)
i1: Removing PWL point (0.000545003,0)
i1: Removing PWL point (0.000548003,0)
i1: Removing PWL point (0.000548003,0)
i1: Removing PWL point (0.000549002,0)
i1: Removing PWL point (0.000549002,0)
i1: Removing PWL point (0.000549002,0)
i1: Removing PWL point (0.000549002,0)
i1: Removing PWL point (0.000549002,0)
i1: Removing PWL point (0.000549002,0)
i1: Removing PWL point (0.000549002,0)
i1: Removing PWL point (0.000549003,0)
i1: Removing PWL point (0.000549003,0)
i1: Removing PWL point (0.000549003,0)
i1: Removing PWL point (0.000549003,0)
i1: Removing PWL point (0.000549003,0)
i1: Removing PWL point (0.000549003,0)
i1: Removing PWL point (0.000549003,0)
i1: Removing PWL point (0.000549003,0)
i1: Removing PWL point (0.000549003,0)
i1: Removing PWL point (0.000549003,0)
i1: Removing PWL point (0.000551003,0)
i1: Removing PWL point (0.000551003,0)
i1: Removing PWL point (0.000551003,0)
i1: Removing PWL point (0.000551003,0)
i1: Removing PWL point (0.000551003,0)
i1: Removing PWL point (0.000552003,0)
i1: Removing PWL point (0.000552003,0)
i1: Removing PWL point (0.000552004,0)
i1: Removing PWL point (0.000553003,0)
i1: Removing PWL point (0.000553003,0)
i1: Removing PWL point (0.000553003,0)
i1: Removing PWL point (0.000553003,0)
i1: Removing PWL point (0.000554002,0)
i1: Removing PWL point (0.000554002,0)
i1: Removing PWL point (0.000554002,0)
i1: Removing PWL point (0.000554002,0)
i1: Removing PWL point (0.000554002,0)
i1: Removing PWL point (0.000554002,0)
i1: Removing PWL point (0.000554002,0)
i1: Removing PWL point (0.000554002,0)
i1: Removing PWL point (0.000554002,0)
i1: Removing PWL point (0.000554002,0)
i1: Removing PWL point (0.000554002,0)
i1: Removing PWL point (0.000554002,0)
i1: Removing PWL point (0.000554002,0)
i1: Removing PWL point (0.000554002,0)
i1: Removing PWL point (0.000554002,0)
i1: Removing PWL point (0.000554002,0)
i1: Removing PWL point (0.000554002,0)
i1: Removing PWL point (0.000554002,0)
i1: Removing PWL point (0.000554002,0)
i1: Removing PWL point (0.000554002,0)
i1: Removing PWL point (0.000554002,0)
i1: Removing PWL point (0.000554002,0)
i1: Removing PWL point (0.000554002,0)
i1: Removing PWL point (0.000554002,0)
i1: Removing PWL point (0.000554002,0)
i1: Removing PWL point (0.000554002,0)
i1: Removing PWL point (0.000554002,0)
i1: Removing PWL point (0.000554002,0)
i1: Removing PWL point (0.000554002,0)
i1: Removing PWL point (0.000554002,0)
i1: Removing PWL point (0.000554002,0)
i1: Removing PWL point (0.000554002,0)
i1: Removing PWL point (0.000554002,0)
i1: Removing PWL point (0.000554002,0)
i1: Removing PWL point (0.000554002,0)
i1: Removing PWL point (0.000554002,0)
i1: Removing PWL point (0.000554002,0)
i1: Removing PWL point (0.000554002,0)
i1: Removing PWL point (0.000554002,0)
i1: Removing PWL point (0.000554002,0)
i1: Removing PWL point (0.000554002,0)
i1: Removing PWL point (0.000554002,0)
i1: Removing PWL point (0.000554002,0)
i1: Removing PWL point (0.000555003,0)
i1: Removing PWL point (0.000555003,0)
i1: Removing PWL point (0.000557003,0)
i1: Removing PWL point (0.000559003,0)
i1: Removing PWL point (0.000559003,0)
i1: Removing PWL point (0.000559003,0)
i1: Removing PWL point (0.000559003,0)
i1: Removing PWL point (0.000559003,0)
i1: Removing PWL point (0.000560003,0)
i1: Removing PWL point (0.000560003,0)
i1: Removing PWL point (0.000560003,0)
i1: Removing PWL point (0.000561003,0)
i1: Removing PWL point (0.000561003,0)
i1: Removing PWL point (0.000564003,0)
i1: Removing PWL point (0.000564004,0)
i1: Removing PWL point (0.000565003,0)
i1: Removing PWL point (0.000565003,0)
i1: Removing PWL point (0.000566003,0)
i1: Removing PWL point (0.000566003,0)
i1: Removing PWL point (0.000566003,0)
i1: Removing PWL point (0.000567003,0)
i1: Removing PWL point (0.000567003,0)
i1: Removing PWL point (0.000567003,0)
i1: Removing PWL point (0.000569003,0)
i1: Removing PWL point (0.000569003,0)
i1: Removing PWL point (0.000569003,0)
i1: Removing PWL point (0.000569003,0)
i1: Removing PWL point (0.000569003,0)
i1: Removing PWL point (0.000569003,0)
i1: Removing PWL point (0.000570003,0)
i1: Removing PWL point (0.000570003,0)
i1: Removing PWL point (0.000571003,0)
i1: Removing PWL point (0.000572002,0)
i1: Removing PWL point (0.000572002,0)
i1: Removing PWL point (0.000572002,0)
i1: Removing PWL point (0.000572002,0)
i1: Removing PWL point (0.000572002,0)
i1: Removing PWL point (0.000572002,0)
i1: Removing PWL point (0.000572003,0)
i1: Removing PWL point (0.000572003,0)
i1: Removing PWL point (0.000572003,0)
i1: Removing PWL point (0.000572003,0)
i1: Removing PWL point (0.000572003,0)
i1: Removing PWL point (0.000572003,0)
i1: Removing PWL point (0.000573003,0)
i1: Removing PWL point (0.000573003,0)
i1: Removing PWL point (0.000575003,0)
i1: Removing PWL point (0.000575003,0)
i1: Removing PWL point (0.000576003,0)
i1: Removing PWL point (0.000576003,0)
i1: Removing PWL point (0.000576003,0)
i1: Removing PWL point (0.000577003,0)
i1: Removing PWL point (0.000577003,0)
i1: Removing PWL point (0.000578003,0)
i1: Removing PWL point (0.000578003,0)
i1: Removing PWL point (0.000578003,0)
i1: Removing PWL point (0.000579002,0)
i1: Removing PWL point (0.000579002,0)
i1: Removing PWL point (0.000579002,0)
i1: Removing PWL point (0.000581002,0)
i1: Removing PWL point (0.000581003,0)
i1: Removing PWL point (0.000581003,0)
i1: Removing PWL point (0.000581003,0)
i1: Removing PWL point (0.000581003,0)
i1: Removing PWL point (0.000581003,0)
i1: Removing PWL point (0.000581003,0)
i1: Removing PWL point (0.000582003,0)
i1: Removing PWL point (0.000582003,0)
i1: Removing PWL point (0.000582003,0)
i1: Removing PWL point (0.000583003,0)
i1: Removing PWL point (0.000583003,0)
i1: Removing PWL point (0.000585003,0)
i1: Removing PWL point (0.000585003,0)
i1: Removing PWL point (0.000585004,0)
i1: Removing PWL point (0.000586003,0)
i1: Removing PWL point (0.000586004,0)
i1: Removing PWL point (0.000588003,0)
i1: Removing PWL point (0.000588003,0)
i1: Removing PWL point (0.000588003,0)
i1: Removing PWL point (0.000588003,0)
i1: Removing PWL point (0.000588003,0)
i1: Removing PWL point (0.000589003,0)
i1: Removing PWL point (0.000589003,0)
i1: Removing PWL point (0.000590003,0)
i1: Removing PWL point (0.000590003,0)
i1: Removing PWL point (0.000590003,0)
i1: Removing PWL point (0.000591003,0)
i1: Removing PWL point (0.000591003,0)
i1: Removing PWL point (0.000591003,0)
i1: Removing PWL point (0.000591003,0)
i1: Removing PWL point (0.000592003,0)
i1: Removing PWL point (0.000593004,0)
i1: Removing PWL point (0.000593004,0)
i1: Removing PWL point (0.000594002,0)
i1: Removing PWL point (0.000594002,0)
i1: Removing PWL point (0.000594002,0)
i1: Removing PWL point (0.000594002,0)
i1: Removing PWL point (0.000594002,0)
i1: Removing PWL point (0.000594002,0)
i1: Removing PWL point (0.000594002,0)
i1: Removing PWL point (0.000594002,0)
i1: Removing PWL point (0.000594002,0)
i1: Removing PWL point (0.000594002,0)
i1: Removing PWL point (0.000594002,0)
i1: Removing PWL point (0.000594002,0)
i1: Removing PWL point (0.000594002,0)
i1: Removing PWL point (0.000594002,0)
i1: Removing PWL point (0.000594002,0)
i1: Removing PWL point (0.000594002,0)
[...]
i1: Removing PWL point (0.003873,0)
i1: Removing PWL point (0.003873,0)
i1: Removing PWL point (0.003873,0)
i1: Removing PWL point (0.003873,0)
i1: Removing PWL point (0.003873,0)
i1: Removing PWL point (0.003873,0)
i1: Removing PWL point (0.003873,0)
i1: Removing PWL point (0.003873,0)
i1: Removing PWL point (0.003874,0)
i1: Removing PWL point (0.003875,0)
i1: Removing PWL point (0.003875,0)
i1: Removing PWL point (0.003875,0)
i1: Removing PWL point (0.003876,0)
i1: Removing PWL point (0.003877,0)
i1: Removing PWL point (0.003877,0)
i1: Removing PWL point (0.003877,0)
i1: Removing PWL point (0.003878,0)
i1: Removing PWL point (0.003878,0)
i1: Removing PWL point (0.003878,0)
i1: Removing PWL point (0.003879,0)
i1: Removing PWL point (0.003879,0)
i1: Removing PWL point (0.003879,0)
i1: Removing PWL point (0.003879,0)
i1: Removing PWL point (0.00388,0)
i1: Removing PWL point (0.00388,0)
i1: Removing PWL point (0.00388,0)
i1: Removing PWL point (0.00388,0)
i1: Removing PWL point (0.003881,0)
i1: Removing PWL point (0.003882,0)
i1: Removing PWL point (0.003882,0)
i1: Removing PWL point (0.003882,0)
i1: Removing PWL point (0.003883,0)
i1: Removing PWL point (0.003884,0)
i1: Removing PWL point (0.003884,0)
i1: Removing PWL point (0.003885,0)
i1: Removing PWL point (0.003885,0)
i1: Removing PWL point (0.003885,0)
i1: Removing PWL point (0.003885,0)
i1: Removing PWL point (0.003886,0)
i1: Removing PWL point (0.003886,0)
i1: Removing PWL point (0.003886,0)
i1: Removing PWL point (0.003887,0)
i1: Removing PWL point (0.003887,0)
i1: Removing PWL point (0.003887,0)
i1: Removing PWL point (0.003889,0)
i1: Removing PWL point (0.003889,0)
i1: Removing PWL point (0.003889,0)
i1: Removing PWL point (0.003889,0)
i1: Removing PWL point (0.003892,0)
i1: Removing PWL point (0.003892,0)
i1: Removing PWL point (0.003892,0)
i1: Removing PWL point (0.003893,0)
i1: Removing PWL point (0.003893,0)
i1: Removing PWL point (0.003893,0)
i1: Removing PWL point (0.003894,0)
i1: Removing PWL point (0.003894,0)
i1: Removing PWL point (0.003894,0)
i1: Removing PWL point (0.003895,0)
i1: Removing PWL point (0.003895,0)
i1: Removing PWL point (0.003896,0)
i1: Removing PWL point (0.003896,0)
i1: Removing PWL point (0.003897,0)
i1: Removing PWL point (0.003897,0)
i1: Removing PWL point (0.003897,0)
i1: Removing PWL point (0.003898,0)
i1: Removing PWL point (0.003898,0)
i1: Removing PWL point (0.003898,0)
i1: Removing PWL point (0.003899,0)
i1: Removing PWL point (0.003899,0)
i1: Removing PWL point (0.003899,0)
i1: Removing PWL point (0.003899,0)
i1: Removing PWL point (0.003899,0)
i1: Removing PWL point (0.003899,0)
i1: Removing PWL point (0.003899,0)
i1: Removing PWL point (0.003899,0)
i1: Removing PWL point (0.003899,0)
i1: Removing PWL point (0.003899,0)
i1: Removing PWL point (0.003899,0)
i1: Removing PWL point (0.003899,0)
i1: Removing PWL point (0.003899,0)
i1: Removing PWL point (0.003899,0)
i1: Removing PWL point (0.003899,0)
i1: Removing PWL point (0.003899,0)
i1: Removing PWL point (0.003899,0)
i1: Removing PWL point (0.003899,0)
i1: Removing PWL point (0.003899,0)
i1: Removing PWL point (0.003899,0)
i1: Removing PWL point (0.003899,0)
i1: Removing PWL point (0.003899,0)
i1: Removing PWL point (0.003899,0)
i1: Removing PWL point (0.0039,0)
i1: Removing PWL point (0.0039,0)
i1: Removing PWL point (0.003901,0)
i1: Removing PWL point (0.003901,0)
i1: Removing PWL point (0.003902,0)
i1: Removing PWL point (0.003902,0)
i1: Removing PWL point (0.003902,0)
i1: Removing PWL point (0.003902,0)
i1: Removing PWL point (0.003903,0)
i1: Removing PWL point (0.003903,0)
i1: Removing PWL point (0.003903,0)
i1: Removing PWL point (0.003903,0)
i1: Removing PWL point (0.003903,0)
i1: Removing PWL point (0.003903,0)
i1: Removing PWL point (0.003903,0)
i1: Removing PWL point (0.003903,0)
i1: Removing PWL point (0.003904,0)
i1: Removing PWL point (0.003905,0)
i1: Removing PWL point (0.003905,0)
i1: Removing PWL point (0.003905,0)
i1: Removing PWL point (0.003906,0)
i1: Removing PWL point (0.003906,0)
i1: Removing PWL point (0.003907,0)
i1: Removing PWL point (0.003907,0)
i1: Removing PWL point (0.003907,0)
i1: Removing PWL point (0.003907,0)
i1: Removing PWL point (0.003907,0)
i1: Removing PWL point (0.003907,0)
i1: Removing PWL point (0.003907,0)
i1: Removing PWL point (0.003907,0)
i1: Removing PWL point (0.003907,0)
i1: Removing PWL point (0.003907,0)
i1: Removing PWL point (0.003907,0)
i1: Removing PWL point (0.003907,0)
i1: Removing PWL point (0.003907,0)
i1: Removing PWL point (0.003907,0)
i1: Removing PWL point (0.003907,0)
i1: Removing PWL point (0.003907,0)
i1: Removing PWL point (0.003907,0)
i1: Removing PWL point (0.003907,0)
i1: Removing PWL point (0.003907,0)
i1: Removing PWL point (0.003907,0)
i1: Removing PWL point (0.003908,0)
i1: Removing PWL point (0.003908,0)
i1: Removing PWL point (0.00391,0)
i1: Removing PWL point (0.00391,0)
i1: Removing PWL point (0.00391,0)
i1: Removing PWL point (0.00391,0)
i1: Removing PWL point (0.003911,0)
i1: Removing PWL point (0.003911,0)
i1: Removing PWL point (0.003911,0)
i1: Removing PWL point (0.003911,0)
i1: Removing PWL point (0.003911,0)
i1: Removing PWL point (0.003911,0)
i1: Removing PWL point (0.003911,0)
i1: Removing PWL point (0.003911,0)
i1: Removing PWL point (0.003911,0)
i1: Removing PWL point (0.003912,0)
i1: Removing PWL point (0.003912,0)
i1: Removing PWL point (0.003912,0)
i1: Removing PWL point (0.003912,0)
i1: Removing PWL point (0.003912,0)
i1: Removing PWL point (0.003912,0)
i1: Removing PWL point (0.003912,0)
i1: Removing PWL point (0.003912,0)
i1: Removing PWL point (0.003913,0)
i1: Removing PWL point (0.003913,0)
i1: Removing PWL point (0.003913,0)
i1: Removing PWL point (0.003913,0)
i1: Removing PWL point (0.003914,0)
i1: Removing PWL point (0.003914,0)
i1: Removing PWL point (0.003914,0)
i1: Removing PWL point (0.003914,0)
i1: Removing PWL point (0.003914,0)
i1: Removing PWL point (0.003915,0)
i1: Removing PWL point (0.003915,0)
i1: Removing PWL point (0.003915,0)
i1: Removing PWL point (0.003915,0)
i1: Removing PWL point (0.003916,0)
i1: Removing PWL point (0.003916,0)
i1: Removing PWL point (0.003916,0)
i1: Removing PWL point (0.003916,0)
i1: Removing PWL point (0.003917,0)
i1: Removing PWL point (0.003917,0)
i1: Removing PWL point (0.003918,0)
i1: Removing PWL point (0.003918,0)
i1: Removing PWL point (0.003918,0)
i1: Removing PWL point (0.003918,0)
i1: Removing PWL point (0.003919,0)
i1: Removing PWL point (0.003919,0)
i1: Removing PWL point (0.00392,0)
i1: Removing PWL point (0.003921,0)
i1: Removing PWL point (0.003921,0)
i1: Removing PWL point (0.003921,0)
i1: Removing PWL point (0.003922,0)
i1: Removing PWL point (0.003922,0)
i1: Removing PWL point (0.003922,0)
i1: Removing PWL point (0.003922,0)
i1: Removing PWL point (0.003923,0)
i1: Removing PWL point (0.003923,0)
i1: Removing PWL point (0.003923,0)
i1: Removing PWL point (0.003923,0)
i1: Removing PWL point (0.003923,0)
i1: Removing PWL point (0.003923,0)
i1: Removing PWL point (0.003923,0)
i1: Removing PWL point (0.003923,0)
i1: Removing PWL point (0.003923,0)
i1: Removing PWL point (0.003923,0)
i1: Removing PWL point (0.003924,0)
i1: Removing PWL point (0.003924,0)
i1: Removing PWL point (0.003925,0)
i1: Removing PWL point (0.003925,0)
i1: Removing PWL point (0.003926,0)
i1: Removing PWL point (0.003926,0)
i1: Removing PWL point (0.003927,0)
i1: Removing PWL point (0.003927,0)
i1: Removing PWL point (0.003927,0)
i1: Removing PWL point (0.003928,0)
i1: Removing PWL point (0.003929,0)
i1: Removing PWL point (0.003929,0)
i1: Removing PWL point (0.003929,0)
i1: Removing PWL point (0.00393,0)
i1: Removing PWL point (0.00393,0)
i1: Removing PWL point (0.003931,0)
i1: Removing PWL point (0.003931,0)
i1: Removing PWL point (0.003931,0)
i1: Removing PWL point (0.003931,0)
i1: Removing PWL point (0.003931,0)
i1: Removing PWL point (0.003931,0)
i1: Removing PWL point (0.003931,0)
i1: Removing PWL point (0.003931,0)
i1: Removing PWL point (0.003931,0)
i1: Removing PWL point (0.003931,0)
i1: Removing PWL point (0.003931,0)
i1: Removing PWL point (0.003931,0)
i1: Removing PWL point (0.003931,0)
i1: Removing PWL point (0.003931,0)
i1: Removing PWL point (0.003931,0)
i1: Removing PWL point (0.003931,0)
i1: Removing PWL point (0.003931,0)
i1: Removing PWL point (0.003931,0)
i1: Removing PWL point (0.003931,0)
i1: Removing PWL point (0.003931,0)
i1: Removing PWL point (0.003931,0)
i1: Removing PWL point (0.003931,0)
i1: Removing PWL point (0.003931,0)
i1: Removing PWL point (0.003931,0)
i1: Removing PWL point (0.003931,0)
i1: Removing PWL point (0.003931,0)
i1: Removing PWL point (0.003931,0)
i1: Removing PWL point (0.003931,0)
i1: Removing PWL point (0.003931,0)
i1: Removing PWL point (0.003931,0)
i1: Removing PWL point (0.003931,0)
i1: Removing PWL point (0.003931,0)
i1: Removing PWL point (0.003931,0)
i1: Removing PWL point (0.003931,0)
i1: Removing PWL point (0.003931,0)
i1: Removing PWL point (0.003931,0)
i1: Removing PWL point (0.003931,0)
i1: Removing PWL point (0.003931,0)
i1: Removing PWL point (0.003931,0)
i1: Removing PWL point (0.003931,0)
i1: Removing PWL point (0.003931,0)
i1: Removing PWL point (0.003931,0)
i1: Removing PWL point (0.003931,0)
i1: Removing PWL point (0.003931,0)
i1: Removing PWL point (0.003931,0)
i1: Removing PWL point (0.003931,0)
i1: Removing PWL point (0.003931,0)
i1: Removing PWL point (0.003931,0)
i1: Removing PWL point (0.003931,0)
i1: Removing PWL point (0.003931,0)
i1: Removing PWL point (0.003931,0)
i1: Removing PWL point (0.003931,0)
i1: Removing PWL point (0.003931,0)
i1: Removing PWL point (0.003931,0)
i1: Removing PWL point (0.003931,0)
i1: Removing PWL point (0.003931,0)
i1: Removing PWL point (0.003931,0)
i1: Removing PWL point (0.003932,0)
i1: Removing PWL point (0.003932,0)
i1: Removing PWL point (0.003933,0)
i1: Removing PWL point (0.003933,0)
i1: Removing PWL point (0.003933,0)
i1: Removing PWL point (0.003934,0)
i1: Removing PWL point (0.003934,0)
i1: Removing PWL point (0.003935,0)
i1: Removing PWL point (0.003936,0)
i1: Removing PWL point (0.003936,0)
i1: Removing PWL point (0.003936,0)
i1: Removing PWL point (0.003936,0)
i1: Removing PWL point (0.003936,0)
i1: Removing PWL point (0.003937,0)
i1: Removing PWL point (0.003937,0)
i1: Removing PWL point (0.003938,0)
i1: Removing PWL point (0.003938,0)
i1: Removing PWL point (0.003938,0)
i1: Removing PWL point (0.003938,0)
i1: Removing PWL point (0.003939,0)
i1: Removing PWL point (0.003939,0)
i1: Removing PWL point (0.003939,0)
i1: Removing PWL point (0.003939,0)
i1: Removing PWL point (0.00394,0)
i1: Removing PWL point (0.003941,0)
i1: Removing PWL point (0.003941,0)
i1: Removing PWL point (0.003941,0)
i1: Removing PWL point (0.003942,0)
i1: Removing PWL point (0.003942,0)
i1: Removing PWL point (0.003942,0)
i1: Removing PWL point (0.003942,0)
i1: Removing PWL point (0.003942,0)
i1: Removing PWL point (0.003942,0)
i1: Removing PWL point (0.003943,0)
i1: Removing PWL point (0.003943,0)
i1: Removing PWL point (0.003943,0)
i1: Removing PWL point (0.003943,0)
i1: Removing PWL point (0.003943,0)
i1: Removing PWL point (0.003943,0)
i1: Removing PWL point (0.003943,0)
i1: Removing PWL point (0.003943,0)
i1: Removing PWL point (0.003943,0)
i1: Removing PWL point (0.003943,0)
i1: Removing PWL point (0.003943,0)
i1: Removing PWL point (0.003943,0)
i1: Removing PWL point (0.003943,0)
i1: Removing PWL point (0.003943,0)
i1: Removing PWL point (0.003943,0)
i1: Removing PWL point (0.003943,0)
i1: Removing PWL point (0.003943,0)
i1: Removing PWL point (0.003943,0)
i1: Removing PWL point (0.003943,0)
i1: Removing PWL point (0.003943,0)
i1: Removing PWL point (0.003943,0)
i1: Removing PWL point (0.003943,0)
i1: Removing PWL point (0.003943,0)
i1: Removing PWL point (0.003943,0)
i1: Removing PWL point (0.003943,0)
i1: Removing PWL point (0.003943,0)
i1: Removing PWL point (0.003943,0)
i1: Removing PWL point (0.003943,0)
i1: Removing PWL point (0.003943,0)
i1: Removing PWL point (0.003944,0)
i1: Removing PWL point (0.003945,0)
i1: Removing PWL point (0.003945,0)
i1: Removing PWL point (0.003945,0)
i1: Removing PWL point (0.003946,0)
i1: Removing PWL point (0.003946,0)
i1: Removing PWL point (0.003946,0)
i1: Removing PWL point (0.003946,0)
i1: Removing PWL point (0.003947,0)
i1: Removing PWL point (0.003948,0)
i1: Removing PWL point (0.003948,0)
i1: Removing PWL point (0.003948,0)
i1: Removing PWL point (0.003948,0)
i1: Removing PWL point (0.003948,0)
i1: Removing PWL point (0.003949,0)
i1: Removing PWL point (0.00395,0)
i1: Removing PWL point (0.00395,0)
i1: Removing PWL point (0.00395,0)
i1: Removing PWL point (0.003951,0)
i1: Removing PWL point (0.003951,0)
i1: Removing PWL point (0.003951,0)
i1: Removing PWL point (0.003951,0)
i1: Removing PWL point (0.003952,0)
i1: Removing PWL point (0.003952,0)
i1: Removing PWL point (0.003953,0)
i1: Removing PWL point (0.003953,0)
i1: Removing PWL point (0.003953,0)
i1: Removing PWL point (0.003954,0)
i1: Removing PWL point (0.003954,0)
i1: Removing PWL point (0.003954,0)
i1: Removing PWL point (0.003955,0)
i1: Removing PWL point (0.003955,0)
i1: Removing PWL point (0.003956,0)
i1: Removing PWL point (0.003956,0)
i1: Removing PWL point (0.003958,0)
i1: Removing PWL point (0.003958,0)
i1: Removing PWL point (0.003958,0)
i1: Removing PWL point (0.003958,0)
i1: Removing PWL point (0.00396,0)
i1: Removing PWL point (0.00396,0)
i1: Removing PWL point (0.00396,0)
i1: Removing PWL point (0.00396,0)
i1: Removing PWL point (0.00396,0)
i1: Removing PWL point (0.00396,0)
i1: Removing PWL point (0.00396,0)
i1: Removing PWL point (0.00396,0)
i1: Removing PWL point (0.00396,0)
i1: Removing PWL point (0.00396,0)
i1: Removing PWL point (0.00396,0)
i1: Removing PWL point (0.00396,0)
i1: Removing PWL point (0.003961,0)
i1: Removing PWL point (0.003961,0)
i1: Removing PWL point (0.003962,0)
i1: Removing PWL point (0.003963,0)
i1: Removing PWL point (0.003963,0)
i1: Removing PWL point (0.003963,0)
i1: Removing PWL point (0.003963,0)
i1: Removing PWL point (0.003963,0)
i1: Removing PWL point (0.003963,0)
i1: Removing PWL point (0.003963,0)
i1: Removing PWL point (0.003965,0)
i1: Removing PWL point (0.003965,0)
i1: Removing PWL point (0.003965,0)
i1: Removing PWL point (0.003966,0)
i1: Removing PWL point (0.003966,0)
i1: Removing PWL point (0.003967,0)
i1: Removing PWL point (0.003967,0)
i1: Removing PWL point (0.003968,0)
i1: Removing PWL point (0.003969,0)
i1: Removing PWL point (0.003969,0)
i1: Removing PWL point (0.003969,0)
i1: Removing PWL point (0.003969,0)
i1: Removing PWL point (0.003969,0)
i1: Removing PWL point (0.003969,0)
i1: Removing PWL point (0.003969,0)
i1: Removing PWL point (0.00397,0)
i1: Removing PWL point (0.00397,0)
i1: Removing PWL point (0.00397,0)
i1: Removing PWL point (0.00397,0)
i1: Removing PWL point (0.00397,0)
i1: Removing PWL point (0.00397,0)
i1: Removing PWL point (0.00397,0)
i1: Removing PWL point (0.00397,0)
i1: Removing PWL point (0.00397,0)
i1: Removing PWL point (0.00397,0)
i1: Removing PWL point (0.00397,0)
i1: Removing PWL point (0.00397,0)
i1: Removing PWL point (0.00397,0)
i1: Removing PWL point (0.00397,0)
i1: Removing PWL point (0.00397,0)
i1: Removing PWL point (0.00397,0)
i1: Removing PWL point (0.00397,0)
i1: Removing PWL point (0.00397,0)
i1: Removing PWL point (0.00397,0)
i1: Removing PWL point (0.00397,0)
i1: Removing PWL point (0.00397,0)
i1: Removing PWL point (0.00397,0)
i1: Removing PWL point (0.00397,0)
i1: Removing PWL point (0.00397,0)
i1: Removing PWL point (0.00397,0)
i1: Removing PWL point (0.00397,0)
i1: Removing PWL point (0.00397,0)
i1: Removing PWL point (0.00397,0)
i1: Removing PWL point (0.003971,0)
i1: Removing PWL point (0.003972,0)
i1: Removing PWL point (0.003972,0)
i1: Removing PWL point (0.003973,0)
i1: Removing PWL point (0.003973,0)
i1: Removing PWL point (0.003973,0)
i1: Removing PWL point (0.003974,0)
i1: Removing PWL point (0.003974,0)
i1: Removing PWL point (0.003974,0)
i1: Removing PWL point (0.003974,0)
i1: Removing PWL point (0.003974,0)
i1: Removing PWL point (0.003974,0)
i1: Removing PWL point (0.003974,0)
i1: Removing PWL point (0.003974,0)
i1: Removing PWL point (0.003975,0)
i1: Removing PWL point (0.003976,0)
i1: Removing PWL point (0.003976,0)
i1: Removing PWL point (0.003976,0)
i1: Removing PWL point (0.003976,0)
i1: Removing PWL point (0.003976,0)
i1: Removing PWL point (0.003976,0)
i1: Removing PWL point (0.003976,0)
i1: Removing PWL point (0.003976,0)
i1: Removing PWL point (0.003976,0)
i1: Removing PWL point (0.003976,0)
i1: Removing PWL point (0.003976,0)
i1: Removing PWL point (0.003976,0)
i1: Removing PWL point (0.003976,0)
i1: Removing PWL point (0.003976,0)
i1: Removing PWL point (0.003976,0)
i1: Removing PWL point (0.003976,0)
i1: Removing PWL point (0.003976,0)
i1: Removing PWL point (0.003976,0)
i1: Removing PWL point (0.003976,0)
i1: Removing PWL point (0.003976,0)
i1: Removing PWL point (0.003976,0)
i1: Removing PWL point (0.003976,0)
i1: Removing PWL point (0.003977,0)
i1: Removing PWL point (0.003977,0)
i1: Removing PWL point (0.003978,0)
i1: Removing PWL point (0.003978,0)
i1: Removing PWL point (0.00398,0)
i1: Removing PWL point (0.00398,0)
i1: Removing PWL point (0.00398,0)
i1: Removing PWL point (0.00398,0)
i1: Removing PWL point (0.003981,0)
i1: Removing PWL point (0.003981,0)
i1: Removing PWL point (0.003982,0)
i1: Removing PWL point (0.003982,0)
i1: Removing PWL point (0.003982,0)
i1: Removing PWL point (0.003984,0)
i1: Removing PWL point (0.003984,0)
i1: Removing PWL point (0.003985,0)
i1: Removing PWL point (0.003985,0)
i1: Removing PWL point (0.003985,0)
i1: Removing PWL point (0.003985,0)
i1: Removing PWL point (0.003986,0)
i1: Removing PWL point (0.003986,0)
i1: Removing PWL point (0.003986,0)
i1: Removing PWL point (0.003987,0)
i1: Removing PWL point (0.003987,0)
i1: Removing PWL point (0.003987,0)
i1: Removing PWL point (0.003988,0)
i1: Removing PWL point (0.003988,0)
i1: Removing PWL point (0.003988,0)
i1: Removing PWL point (0.003988,0)
i1: Removing PWL point (0.003989,0)
i1: Removing PWL point (0.00399,0)
i1: Removing PWL point (0.003991,0)
i1: Removing PWL point (0.003991,0)
i1: Removing PWL point (0.003991,0)
i1: Removing PWL point (0.003992,0)
i1: Removing PWL point (0.003992,0)
i1: Removing PWL point (0.003992,0)
i1: Removing PWL point (0.003993,0)
i1: Removing PWL point (0.003993,0)
i1: Removing PWL point (0.003993,0)
i1: Removing PWL point (0.003993,0)
i1: Removing PWL point (0.003993,0)
i1: Removing PWL point (0.003993,0)
i1: Removing PWL point (0.003993,0)
i1: Removing PWL point (0.003993,0)
i1: Removing PWL point (0.003993,0)
i1: Removing PWL point (0.003993,0)
i1: Removing PWL point (0.003994,0)
i1: Removing PWL point (0.003994,0)
i1: Removing PWL point (0.003995,0)
i1: Removing PWL point (0.003995,0)
i1: Removing PWL point (0.003995,0)
i1: Removing PWL point (0.003995,0)
i1: Removing PWL point (0.003996,0)
i1: Removing PWL point (0.003997,0)
i1: Removing PWL point (0.003997,0)
i1: Removing PWL point (0.003997,0)
i1: Removing PWL point (0.003998,0)
i1: Removing PWL point (0.003999,0)
i1: Removing PWL point (0.003999,0)
i1: Removing PWL point (0.004,0)
i1: Removing PWL point (0.004,0)
i1: Removing PWL point (0.004,0)
i1: Removing PWL point (0.004001,0)
i1: Removing PWL point (0.004001,0)
i1: Removing PWL point (0.004001,0)
i1: Removing PWL point (0.004001,0)
i1: Removing PWL point (0.004001,0)
i1: Removing PWL point (0.004002,0)
i1: Removing PWL point (0.004003,0)
i1: Removing PWL point (0.004003,0)
i1: Removing PWL point (0.004003,0)
i1: Removing PWL point (0.004003,0)
Direct Newton iteration for .op point succeeded.

Date: Mon May  8 14:22:46 2023
Total elapsed time: 44.955 seconds.

tnom = 27
temp = 27
method = modified trap
totiter = 481590
traniter = 481565
tranpoints = 215889
accept = 209169
rejected = 6720
matrix size = 36
fillins = 21
solver = Normal
Avg thread counts: 1.0/1.0/1.0/1.0
Matrix Compiler1: 3.20 KB object code size  1.1/0.6/[0.3]
Matrix Compiler2: 4.01 KB object code size  0.6/0.7/[0.5]

